@<TRIPOS>MOLECULE
AQ4
   52    54     1     0     0
SMALL
NO_CHARGES

@<TRIPOS>ATOM
      1  C1        29.5520   -1.9890   53.4960 C.1       1 AQ4         0.0000
      2  C2        28.8410   -1.0220   53.4320 C.1       1 AQ4         0.0000
      3  C3        27.9890    0.0940   53.3660 C.ar      1 AQ4         0.0000
      4  C4        26.6060   -0.1190   53.3230 C.ar      1 AQ4         0.0000
      5  C5        25.7250    0.9720   53.2580 C.ar      1 AQ4         0.0000
      6  N1        24.2890    0.7120   53.2150 N.pl3     1 AQ4         0.0000
      7  C6        23.4100   -0.2170   53.9080 C.ar      1 AQ4         0.0000
      8  C7        22.0370   -0.3090   53.5720 C.ar      1 AQ4         0.0000
      9  C8        21.5010    0.4760   52.5460 C.ar      1 AQ4         0.0000
     10  C9        20.1430    0.3760   52.2180 C.ar      1 AQ4         0.0000
     11  O1        19.5890    1.2200   51.1200 O.3       1 AQ4         0.0000
     12  C10       20.5500    1.3620   50.0410 C.3       1 AQ4         0.0000
     13  C11       20.2350    2.6450   49.2620 C.3       1 AQ4         0.0000
     14  O2        18.9900    2.4850   48.5430 O.3       1 AQ4         0.0000
     15  C12       17.7120    2.6180   49.3990 C.3       1 AQ4         0.0000
     16  C13       19.3010   -0.5350   52.9230 C.ar      1 AQ4         0.0000
     17  O3        17.8280   -0.6790   52.5970 O.3       1 AQ4         0.0000
     18  C14       17.2270    0.6010   52.2200 C.3       1 AQ4         0.0000
     19  C15       15.7030    0.4940   52.0660 C.3       1 AQ4         0.0000
     20  O4        15.1080    0.1670   53.3350 O.3       1 AQ4         0.0000
     21  C16       13.8430   -0.6950   53.2210 C.3       1 AQ4         0.0000
     22  C17       19.8450   -1.3180   53.9420 C.ar      1 AQ4         0.0000
     23  C18       21.1990   -1.2220   54.2640 C.ar      1 AQ4         0.0000
     24  N2        21.7470   -2.0390   55.3190 N.ar      1 AQ4         0.0000
     25  C19       23.1170   -1.9340   55.6420 C.ar      1 AQ4         0.0000
     26  N3        23.9430   -1.0230   54.9400 N.ar      1 AQ4         0.0000
     27  C20       26.2340    2.2920   53.2360 C.ar      1 AQ4         0.0000
     28  C21       27.6250    2.5090   53.2790 C.ar      1 AQ4         0.0000
     29  C22       28.5080    1.4100   53.3440 C.ar      1 AQ4         0.0000
     30  H1        30.1790   -2.8420   53.5520 H         1 AQ4         0.0000
     31  H2        26.2160   -1.1260   53.3400 H         1 AQ4         0.0000
     32  H3        23.8040    1.3010   52.5680 H         1 AQ4         0.0000
     33  H4        22.1360    1.1620   52.0050 H         1 AQ4         0.0000
     34  H5        20.4810    0.4950   49.3680 H         1 AQ4         0.0000
     35  H6        21.5660    1.4230   50.4570 H         1 AQ4         0.0000
     36  H7        21.0460    2.8480   48.5480 H         1 AQ4         0.0000
     37  H8        20.1460    3.4870   49.9640 H         1 AQ4         0.0000
     38  H9        16.8270    2.4810   48.7610 H         1 AQ4         0.0000
     39  H10       17.7180    1.8510   50.1880 H         1 AQ4         0.0000
     40  H11       17.6810    3.6170   49.8590 H         1 AQ4         0.0000
     41  H12       17.6590    0.9290   51.2630 H         1 AQ4         0.0000
     42  H13       17.4550    1.3440   52.9990 H         1 AQ4         0.0000
     43  H14       15.3030    1.4560   51.7120 H         1 AQ4         0.0000
     44  H15       15.4640   -0.2940   51.3360 H         1 AQ4         0.0000
     45  H16       13.4480   -0.9020   54.2270 H         1 AQ4         0.0000
     46  H17       13.0850   -0.1570   52.6330 H         1 AQ4         0.0000
     47  H18       14.0900   -1.6430   52.7210 H         1 AQ4         0.0000
     48  H19       19.2130   -2.0040   54.4860 H         1 AQ4         0.0000
     49  H20       23.5360   -2.5490   56.4250 H         1 AQ4         0.0000
     50  H21       25.5570    3.1320   53.1860 H         1 AQ4         0.0000
     51  H22       28.0160    3.5160   53.2620 H         1 AQ4         0.0000
     52  H23       29.5750    1.5730   53.3770 H         1 AQ4         0.0000
@<TRIPOS>BOND
     1    1   30 1
     2    1    2 3
     3    2    3 1
     4    3    4 ar
     5    4   31 1
     6    4    5 ar
     7    5    6 1
     8    6    7 1
     9    6   32 1
    10    7   26 ar
    11    7    8 ar
    12    8   23 ar
    13    8    9 ar
    14    9   33 1
    15    9   10 ar
    16   10   16 ar
    17   10   11 1
    18   11   12 1
    19   12   34 1
    20   12   35 1
    21   12   13 1
    22   13   36 1
    23   13   37 1
    24   13   14 1
    25   14   15 1
    26   15   38 1
    27   15   39 1
    28   15   40 1
    29   16   22 ar
    30   16   17 1
    31   17   18 1
    32   18   41 1
    33   18   42 1
    34   18   19 1
    35   19   20 1
    36   19   43 1
    37   19   44 1
    38   20   21 1
    39   21   45 1
    40   21   46 1
    41   21   47 1
    42   22   23 ar
    43   22   48 1
    44   23   24 ar
    45   24   25 ar
    46   25   49 1
    47   25   26 ar
    48    5   27 ar
    49   27   28 ar
    50   27   50 1
    51   28   29 ar
    52   28   51 1
    53    3   29 ar
    54   29   52 1
@<TRIPOS>SUBSTRUCTURE
     1 AQ4         1 GROUP 0 A     ****
