@<TRIPOS>MOLECULE
AQ4
52   54    1
SMALL
USER_CHARGES


@<TRIPOS>ATOM
      1 C1         29.2056   -2.6968   53.3060 C.1       1 AQ4        -0.1770 
      2 C2         28.6127   -1.6534   53.2613 C.1       1 AQ4        -0.0730 
      3 C3         27.9062   -0.4097   53.2076 C.ar      1 AQ4         0.0730 
      4 C4         26.5143   -0.3880   53.3614 C.ar      1 AQ4        -0.1500 
      5 C5         25.8022    0.8187   53.3249 C.ar      1 AQ4         0.1000 
      6 N1         24.3930    0.8812   53.4139 N.pl3     1 AQ4        -0.6000 
      7 C6         23.5025    0.0142   54.1020 C.ar      1 AQ4         0.4100 
      8 C7         22.1186    0.0995   53.8326 C.ar      1 AQ4         0.0000 
      9 C8         21.5147    0.9816   52.8914 C.ar      1 AQ4        -0.1500 
     10 C9         20.1325    0.9989   52.6898 C.ar      1 AQ4         0.0825 
     11 O1         19.4847    1.8598   51.8489 O.3       1 AQ4        -0.3625 
     12 C10        20.2732    2.5878   50.8970 C.3       1 AQ4         0.2800 
     13 C11        19.3253    3.3158   49.9427 C.3       1 AQ4         0.2800 
     14 O2         18.6431    2.3543   49.1204 O.3       1 AQ4        -0.5600 
     15 C12        17.7363    2.9955   48.2259 C.3       1 AQ4         0.2800 
     16 C13        19.3452    0.1110   53.4292 C.ar      1 AQ4         0.0825 
     17 O3         17.9766    0.0295   53.3597 O.3       1 AQ4        -0.3625 
     18 C14        17.4563   -0.0933   52.0232 C.3       1 AQ4         0.2800 
     19 C15        16.1868   -0.9458   52.0710 C.3       1 AQ4         0.2800 
     20 O4         15.1446   -0.2237   52.7469 O.3       1 AQ4        -0.5600 
     21 C16        13.9489   -0.9976   52.8208 C.3       1 AQ4         0.2800 
     22 C17        19.9378   -0.7427   54.3663 C.ar      1 AQ4        -0.1500 
     23 C18        21.3093   -0.7733   54.5711 C.ar      1 AQ4         0.3100 
     24 N2         21.8004   -1.6383   55.4650 N.ar      1 AQ4        -0.6200 
     25 C19        23.1280   -1.6502   55.6296 C.ar      1 AQ4         0.4700 
     26 N3         24.0024   -0.8689   54.9891 N.ar      1 AQ4        -0.6200 
     27 C20        26.5191    1.9993   53.0713 C.ar      1 AQ4        -0.1500 
     28 C21        27.9082    1.9836   52.9177 C.ar      1 AQ4        -0.1500 
     29 C22        28.6032    0.7787   52.9917 C.ar      1 AQ4        -0.1500 
     30 H1         29.7324   -3.6234   53.3456 H         1 AQ4         0.1770 
     31 H2         25.9870   -1.3291   53.4993 H         1 AQ4         0.1500 
     32 H3         24.0658    1.8434   53.5108 H         1 AQ4         0.4000 
     33 H4         22.1575    1.6545   52.3308 H         1 AQ4         0.1500 
     34 H5         20.8874    3.3275   51.4223 H         1 AQ4         0.0000 
     35 H6         20.9018    1.8941   50.3260 H         1 AQ4         0.0000 
     36 H7         18.5824    3.8859   50.5119 H         1 AQ4         0.0000 
     37 H8         19.8982    3.9923   49.2992 H         1 AQ4         0.0000 
     38 H9         17.2481    2.2252   47.6230 H         1 AQ4         0.0000 
     39 H10        18.2746    3.6751   47.5584 H         1 AQ4         0.0000 
     40 H11        16.9701    3.5408   48.7852 H         1 AQ4         0.0000 
     41 H12        17.2070    0.9068   51.6531 H         1 AQ4         0.0000 
     42 H13        18.1808   -0.5774   51.3567 H         1 AQ4         0.0000 
     43 H14        15.8577   -1.1709   51.0506 H         1 AQ4         0.0000 
     44 H15        16.3808   -1.8792   52.6115 H         1 AQ4         0.0000 
     45 H16        13.1895   -0.4058   53.3387 H         1 AQ4         0.0000 
     46 H17        14.1237   -1.9171   53.3875 H         1 AQ4         0.0000 
     47 H18        13.5847   -1.2343   51.8165 H         1 AQ4         0.0000 
     48 H19        19.3045   -1.4138   54.9445 H         1 AQ4         0.1500 
     49 H20        23.5311   -2.3570   56.3486 H         1 AQ4         0.1500 
     50 H21        25.9998    2.9537   52.9961 H         1 AQ4         0.1500 
     51 H22        28.4453    2.9122   52.7349 H         1 AQ4         0.1500 
     52 H23        29.6847    0.7744   52.8689 H         1 AQ4         0.1500 
@<TRIPOS>BOND
     1    1   30 1    
     2    1    2 3    
     3    2    3 1    
     4    3    4 ar   
     5    3   29 ar   
     6    4   31 1    
     7    4    5 ar   
     8    5    6 1    
     9    5   27 ar   
    10    6    7 1    
    11    6   32 1    
    12    7   26 ar   
    13    7    8 ar   
    14    8   23 ar   
    15    8    9 ar   
    16    9   33 1    
    17    9   10 ar   
    18   10   16 ar   
    19   10   11 1    
    20   11   12 1    
    21   12   34 1    
    22   12   35 1    
    23   12   13 1    
    24   13   36 1    
    25   13   37 1    
    26   13   14 1    
    27   14   15 1    
    28   15   38 1    
    29   15   39 1    
    30   15   40 1    
    31   16   22 ar   
    32   16   17 1    
    33   17   18 1    
    34   18   41 1    
    35   18   42 1    
    36   18   19 1    
    37   19   20 1    
    38   19   43 1    
    39   19   44 1    
    40   20   21 1    
    41   21   45 1    
    42   21   46 1    
    43   21   47 1    
    44   22   23 ar   
    45   22   48 1    
    46   23   24 ar   
    47   24   25 ar   
    48   25   49 1    
    49   25   26 ar   
    50   27   28 ar   
    51   27   50 1    
    52   28   29 ar   
    53   28   51 1    
    54   29   52 1    
@<TRIPOS>SUBSTRUCTURE
     1 AQ4         1 GROUP             0       ****    0 ROOT    
@<TRIPOS>MOLECULE
AQ4
54   56    1
SMALL
USER_CHARGES


@<TRIPOS>ATOM
      1 C1         29.5533   -2.3048   53.3718 C.1       1 AQ4        -0.1770 
      2 C2         28.8592   -1.3247   53.3596 C.1       1 AQ4        -0.0730 
      3 C3         28.0320   -0.1565   53.3445 C.ar      1 AQ4         0.0730 
      4 C4         26.6389   -0.2841   53.4299 C.ar      1 AQ4        -0.1500 
      5 C5         25.8057    0.8418   53.4121 C.ar      1 AQ4         0.1000 
      6 N1         24.3993    0.7811   53.5005 N.pl3     1 AQ4        -0.5500 
      7 C6         23.5878   -0.2493   53.9464 C.2       1 AQ4         0.4138 
      8 C7         22.1061   -0.1238   53.6996 C.ar      1 AQ4         0.0862 
      9 C8         21.5666    0.7672   52.7566 C.ar      1 AQ4        -0.1500 
     10 C9         20.1797    0.8858   52.6127 C.ar      1 AQ4         0.0825 
     11 O1         19.5649    1.7663   51.7635 O.3       1 AQ4        -0.3625 
     12 C10        20.3656    2.3868   50.7479 C.3       1 AQ4         0.2800 
     13 C11        19.4378    3.1518   49.8028 C.3       1 AQ4         0.2800 
     14 O2         18.6452    2.2182   49.0505 O.3       1 AQ4        -0.5600 
     15 C12        17.7551    2.8962   48.1663 C.3       1 AQ4         0.2800 
     16 C13        19.3430    0.0987   53.4214 C.ar      1 AQ4         0.0825 
     17 O3         17.9712    0.1632   53.4047 O.3       1 AQ4        -0.3625 
     18 C14        17.4001   -0.0594   52.1017 C.3       1 AQ4         0.2800 
     19 C15        16.0697   -0.7951   52.2713 C.3       1 AQ4         0.2800 
     20 O4         15.1089    0.0781   52.8866 O.3       1 AQ4        -0.5600 
     21 C16        13.8594   -0.5838   53.0732 C.3       1 AQ4         0.2800 
     22 C17        19.8858   -0.7822   54.3626 C.ar      1 AQ4        -0.1500 
     23 C18        21.2690   -0.9413   54.4700 C.ar      1 AQ4         0.1000 
     24 N2         21.8090   -1.8079   55.4367 N.pl3     1 AQ4        -0.8691 
     25 C19        23.1122   -2.2918   55.0229 C.3       1 AQ4         0.6151 
     26 N3         24.0605   -1.2744   54.5859 N.2       1 AQ4        -0.6960 
     27 C20        26.4145    2.1042   53.3017 C.ar      1 AQ4        -0.1500 
     28 C21        27.8034    2.2382   53.2172 C.ar      1 AQ4        -0.1500 
     29 C22        28.6135    1.1062   53.2397 C.ar      1 AQ4        -0.1500 
     30 H1         30.1697   -3.1751   53.3827 H         1 AQ4         0.1770 
     31 H2         26.2134   -1.2823   53.4906 H         1 AQ4         0.1500 
     32 H3         23.9542    1.6807   53.3355 H         1 AQ4         0.4000 
     33 H4         22.2353    1.3635   52.1467 H         1 AQ4         0.1500 
     34 H5         21.0610    3.0936   51.2137 H         1 AQ4         0.0000 
     35 H6         20.9093    1.6207   50.1824 H         1 AQ4         0.0000 
     36 H7         18.7688    3.8029   50.3769 H         1 AQ4         0.0000 
     37 H8         20.0342    3.7534   49.1083 H         1 AQ4         0.0000 
     38 H9         17.1799    2.1456   47.6177 H         1 AQ4         0.0000 
     39 H10        18.3172    3.5012   47.4485 H         1 AQ4         0.0000 
     40 H11        17.0612    3.5254   48.7317 H         1 AQ4         0.0000 
     41 H12        17.2208    0.9128   51.6308 H         1 AQ4         0.0000 
     42 H13        18.0624   -0.6678   51.4730 H         1 AQ4         0.0000 
     43 H14        15.6923   -1.1013   51.2894 H         1 AQ4         0.0000 
     44 H15        16.2063   -1.6778   52.9065 H         1 AQ4         0.0000 
     45 H16        13.1649    0.1208   53.5383 H         1 AQ4         0.0000 
     46 H17        13.9797   -1.4465   53.7354 H         1 AQ4         0.0000 
     47 H18        13.4469   -0.8993   52.1102 H         1 AQ4         0.0000 
     48 H19        19.2186   -1.3613   54.9977 H         1 AQ4         0.1500 
     49 H20        23.5554   -2.8125   55.8789 H         1 AQ4         0.0000 
     50 H21        25.8072    3.0085   53.2851 H         1 AQ4         0.1500 
     51 H22        28.2501    3.2270   53.1345 H         1 AQ4         0.1500 
     52 H23        29.6941    1.2173   53.1728 H         1 AQ4         0.1500 
     53 H53        21.1772   -2.5856   55.6470 H         1 AQ4         0.4000 
     54 H19        23.0027   -3.0466   54.2329 H         1 AQ4         0.0000 
@<TRIPOS>BOND
     1    1   30 1    
     2    1    2 3    
     3    2    3 1    
     4    3    4 ar   
     5    3   29 ar   
     6    4   31 1    
     7    4    5 ar   
     8    5    6 1    
     9    5   27 ar   
    10    6    7 1    
    11    6   32 1    
    12    7   26 2    
    13    7    8 1    
    14    8   23 ar   
    15    8    9 ar   
    16    9   33 1    
    17    9   10 ar   
    18   10   16 ar   
    19   10   11 1    
    20   11   12 1    
    21   12   34 1    
    22   12   35 1    
    23   12   13 1    
    24   13   36 1    
    25   13   37 1    
    26   13   14 1    
    27   14   15 1    
    28   15   38 1    
    29   15   39 1    
    30   15   40 1    
    31   16   22 ar   
    32   16   17 1    
    33   17   18 1    
    34   18   41 1    
    35   18   42 1    
    36   18   19 1    
    37   19   20 1    
    38   19   43 1    
    39   19   44 1    
    40   20   21 1    
    41   21   45 1    
    42   21   46 1    
    43   21   47 1    
    44   22   23 ar   
    45   22   48 1    
    46   23   24 1    
    47   24   25 1    
    48   24   53 1    
    49   25   49 1    
    50   25   26 1    
    51   25   54 1    
    52   27   28 ar   
    53   27   50 1    
    54   28   29 ar   
    55   28   51 1    
    56   29   52 1    
@<TRIPOS>SUBSTRUCTURE
     1 AQ4         1 GROUP             0       ****    0 ROOT    
