@<TRIPOS>MOLECULE
~{N}-(3-ethynylphenyl)-6,7-bis(2-methoxyethoxy)quinazolin-4-amine
   52    54     1     0     0
SMALL
USER_CHARGES

@<TRIPOS>ATOM
      1 C1         29.5004   -2.1016   53.9790 C.1       1 AQ4        -0.1346
      2 C2         28.8175   -1.1249   53.8312 C.1       1 AQ4        -0.1260
      3 C3         28.0032    0.0393   53.6561 C.ar      1 AQ4         0.0481
      4 C4         26.6093   -0.0841   53.5966 C.ar      1 AQ4        -0.1611
      5 C5         25.7902    1.0422   53.4394 C.ar      1 AQ4         0.1656
      6 N1         24.3853    0.9593   53.3141 N.pl3     1 AQ4        -0.7616
      7 C6         23.4917   -0.0013   53.8580 C.ar      1 AQ4         0.7003
      8 C7         22.1615   -0.0418   53.3884 C.ar      1 AQ4        -0.2635
      9 C8         21.6259    0.7955   52.3738 C.ar      1 AQ4        -0.1695
     10 C9         20.2999    0.6671   51.9712 C.ar      1 AQ4         0.1135
     11 O1         19.8510    1.5133   50.9948 O.3       1 AQ4        -0.3090
     12 C10        19.5886    0.8060   49.7682 C.3       1 AQ4         0.1199
     13 C11        19.5210    1.8113   48.6135 C.3       1 AQ4         0.1214
     14 O2         18.2478    2.4698   48.5081 O.3       1 AQ4        -0.4236
     15 C12        18.0398    3.4584   49.5128 C.3       1 AQ4         0.1161
     16 C13        19.4792   -0.2550   52.6119 C.ar      1 AQ4         0.1224
     17 O3         18.1607   -0.4034   52.2739 O.3       1 AQ4        -0.3277
     18 C14        17.3535    0.5608   52.9779 C.3       1 AQ4         0.1271
     19 C15        15.8923    0.3612   52.5756 C.3       1 AQ4         0.1206
     20 O4         15.4078   -0.8751   53.1240 O.3       1 AQ4        -0.4227
     21 C16        14.0474   -1.1005   52.7599 C.3       1 AQ4         0.1182
     22 C17        20.0088   -1.0998   53.5885 C.ar      1 AQ4        -0.2039
     23 C18        21.3372   -1.0087   53.9870 C.ar      1 AQ4         0.4226
     24 N2         21.7761   -1.8481   54.9303 N.ar      1 AQ4        -0.6950
     25 C19        23.0601   -1.7361   55.2906 C.ar      1 AQ4         0.6516
     26 N3         23.9382   -0.8563   54.7991 N.ar      1 AQ4        -0.7420
     27 C20        26.4120    2.2920   53.2858 C.ar      1 AQ4        -0.1322
     28 C21        27.8025    2.4211   53.3445 C.ar      1 AQ4        -0.1091
     29 C22        28.5988    1.2944   53.5354 C.ar      1 AQ4        -0.1315
     30 H1         30.1070   -2.9690   54.1107 H         1 AQ4         0.1672
     31 H2         26.1677   -1.0757   53.6628 H         1 AQ4         0.1380
     32 H3         23.9488    1.8817   53.3455 H         1 AQ4         0.4419
     33 H4         22.2518    1.5363   51.8805 H         1 AQ4         0.1457
     34 H5         20.4020    0.0971   49.5676 H         1 AQ4         0.0571
     35 H6         18.6370    0.2699   49.8470 H         1 AQ4         0.0571
     36 H7         20.3184    2.5602   48.6805 H         1 AQ4         0.0460
     37 H8         19.6494    1.2665   47.6723 H         1 AQ4         0.0460
     38 H9         17.1498    4.0330   49.2415 H         1 AQ4         0.0366
     39 H10        18.8903    4.1439   49.5732 H         1 AQ4         0.0366
     40 H11        17.8534    2.9885   50.4813 H         1 AQ4         0.0366
     41 H12        17.4651    0.4124   54.0592 H         1 AQ4         0.0560
     42 H13        17.6628    1.5771   52.7080 H         1 AQ4         0.0560
     43 H14        15.2872    1.1852   52.9692 H         1 AQ4         0.0437
     44 H15        15.8036    0.3255   51.4838 H         1 AQ4         0.0437
     45 H16        13.7269   -2.0474   53.2025 H         1 AQ4         0.0349
     46 H17        13.9500   -1.1710   51.6723 H         1 AQ4         0.0349
     47 H18        13.4107   -0.2991   53.1466 H         1 AQ4         0.0349
     48 H19        19.3643   -1.8418   54.0556 H         1 AQ4         0.1689
     49 H20        23.4212   -2.4209   56.0520 H         1 AQ4         0.0547
     50 H21        25.8144    3.1880   53.1232 H         1 AQ4         0.1504
     51 H22        28.2623    3.4014   53.2355 H         1 AQ4         0.1374
     52 H23        29.6809    1.4026   53.5780 H         1 AQ4         0.1415
@<TRIPOS>BOND
     1    1   30 1
     2    1    2 3
     3    2    3 1
     4    3    4 ar
     5    3   29 ar
     6    4   31 1
     7    4    5 ar
     8    5    6 1
     9    5   27 ar
    10    6    7 1
    11    6   32 1
    12    7   26 ar
    13    7    8 ar
    14    8   23 ar
    15    8    9 ar
    16    9   33 1
    17    9   10 ar
    18   10   16 ar
    19   10   11 1
    20   11   12 1
    21   12   34 1
    22   12   35 1
    23   12   13 1
    24   13   36 1
    25   13   37 1
    26   13   14 1
    27   14   15 1
    28   15   38 1
    29   15   39 1
    30   15   40 1
    31   16   22 ar
    32   16   17 1
    33   17   18 1
    34   18   41 1
    35   18   42 1
    36   18   19 1
    37   19   20 1
    38   19   43 1
    39   19   44 1
    40   20   21 1
    41   21   45 1
    42   21   46 1
    43   21   47 1
    44   22   23 ar
    45   22   48 1
    46   23   24 ar
    47   24   25 ar
    48   25   49 1
    49   25   26 ar
    50   27   28 ar
    51   27   50 1
    52   28   29 ar
    53   28   51 1
    54   29   52 1
@<TRIPOS>SUBSTRUCTURE
     1 AQ4         1 GROUP   0 A     ****
@<TRIPOS>MOLECULE
~{N}-(3-ethynylphenyl)-6,7-bis(2-methoxyethoxy)quinazolin-1-ium-4-amine
   53    55     1     0     0
SMALL
USER_CHARGES

@<TRIPOS>ATOM
      1 C1         29.4635   -2.0192   54.0720 C.1       1 AQ4        -0.0762
      2 C2         28.7521   -1.0576   53.9649 C.1       1 AQ4        -0.1662
      3 C3         27.9045    0.0887   53.8368 C.ar      1 AQ4         0.0583
      4 C4         26.5198   -0.0757   53.7044 C.ar      1 AQ4        -0.0979
      5 C5         25.6687    1.0319   53.5892 C.ar      1 AQ4         0.0780
      6 N1         24.2738    0.9130   53.3948 N.pl3     1 AQ4        -0.6532
      7 C6         23.3928   -0.1100   53.8319 C.ar      1 AQ4         0.7791
      8 C7         22.0770   -0.1550   53.3010 C.ar      1 AQ4        -0.2482
      9 C8         21.5561    0.7331   52.3271 C.ar      1 AQ4        -0.1113
     10 C9         20.2465    0.6012   51.8553 C.ar      1 AQ4         0.1066
     11 O1         19.8334    1.4911   50.9000 O.3       1 AQ4        -0.3092
     12 C10        19.8484    0.8787   49.5968 C.3       1 AQ4         0.1228
     13 C11        19.6652    1.9579   48.5258 C.3       1 AQ4         0.1246
     14 O2         18.3075    2.4247   48.4698 O.3       1 AQ4        -0.4271
     15 C12        18.0994    3.6026   49.2454 C.3       1 AQ4         0.1168
     16 C13        19.4056   -0.3813   52.3808 C.ar      1 AQ4         0.2264
     17 O3         18.1040   -0.5653   51.9979 O.3       1 AQ4        -0.2812
     18 C14        17.2876    0.6030   52.2070 C.3       1 AQ4         0.1145
     19 C15        15.8465    0.1527   52.4509 C.3       1 AQ4         0.1247
     20 O4         15.7548   -0.4814   53.7369 O.3       1 AQ4        -0.4281
     21 C16        14.4240   -0.9232   53.9976 C.3       1 AQ4         0.1165
     22 C17        19.9061   -1.2895   53.3138 C.ar      1 AQ4        -0.2559
     23 C18        21.2272   -1.1808   53.7744 C.ar      1 AQ4         0.0974
     24 N2         21.6981   -2.0524   54.6741 N.ar      1 AQ4        -0.3366
     25 C19        22.9465   -1.9599   55.1149 C.ar      1 AQ4         0.6246
     26 N3         23.8314   -1.0183   54.7283 N.ar      1 AQ4        -0.7332
     27 C20        26.2514    2.3092   53.5533 C.ar      1 AQ4        -0.1225
     28 C21        27.6324    2.4791   53.6857 C.ar      1 AQ4        -0.1081
     29 C22        28.4593    1.3681   53.8335 C.ar      1 AQ4        -0.0848
     30 H1         30.0955   -2.8731   54.1670 H         1 AQ4         0.1799
     31 H2         26.1124   -1.0836   53.6793 H         1 AQ4         0.1526
     32 H3         23.8064    1.8179   53.4681 H         1 AQ4         0.4697
     33 H4         22.1794    1.5225   51.9104 H         1 AQ4         0.1599
     34 H5         20.8108    0.3783   49.4306 H         1 AQ4         0.0560
     35 H6         19.0347    0.1478   49.5269 H         1 AQ4         0.0560
     36 H7         20.3574    2.7946   48.6751 H         1 AQ4         0.0500
     37 H8         19.8749    1.5148   47.5468 H         1 AQ4         0.0500
     38 H9         17.0494    3.8917   49.1479 H         1 AQ4         0.0436
     39 H10        18.7201    4.4211   48.8684 H         1 AQ4         0.0436
     40 H11        18.3106    3.4232   50.3020 H         1 AQ4         0.0436
     41 H12        17.6417    1.1827   53.0691 H         1 AQ4         0.0658
     42 H13        17.3159    1.2188   51.3031 H         1 AQ4         0.0658
     43 H14        15.1821    1.0236   52.4359 H         1 AQ4         0.0530
     44 H15        15.5382   -0.5618   51.6793 H         1 AQ4         0.0530
     45 H16        14.4066   -1.3936   54.9843 H         1 AQ4         0.0453
     46 H17        14.1138   -1.6611   53.2517 H         1 AQ4         0.0453
     47 H18        13.7337   -0.0742   54.0013 H         1 AQ4         0.0453
     48 H19        19.2574   -2.0753   53.6929 H         1 AQ4         0.1728
     49 H20        23.2678   -2.7000   55.8389 H         1 AQ4         0.0936
     50 H21        25.6299    3.1946   53.4268 H         1 AQ4         0.1490
     51 H22        28.0611    3.4792   53.6678 H         1 AQ4         0.1589
     52 H23        29.5339    1.5083   53.9339 H         1 AQ4         0.1632
     53 H53        21.1135   -2.8007   55.0330 H         1 AQ4         0.3338
@<TRIPOS>BOND
     1    1   30 1
     2    1    2 3
     3    2    3 1
     4    3    4 ar
     5    3   29 ar
     6    4   31 1
     7    4    5 ar
     8    5    6 1
     9    5   27 ar
    10    6    7 1
    11    6   32 1
    12    7   26 ar
    13    7    8 ar
    14    8   23 ar
    15    8    9 ar
    16    9   33 1
    17    9   10 ar
    18   10   16 ar
    19   10   11 1
    20   11   12 1
    21   12   34 1
    22   12   35 1
    23   12   13 1
    24   13   36 1
    25   13   37 1
    26   13   14 1
    27   14   15 1
    28   15   38 1
    29   15   39 1
    30   15   40 1
    31   16   22 ar
    32   16   17 1
    33   17   18 1
    34   18   41 1
    35   18   42 1
    36   18   19 1
    37   19   20 1
    38   19   43 1
    39   19   44 1
    40   20   21 1
    41   21   45 1
    42   21   46 1
    43   21   47 1
    44   22   23 ar
    45   22   48 1
    46   23   24 ar
    47   24   25 ar
    48   24   53 1
    49   25   49 1
    50   25   26 ar
    51   27   28 ar
    52   27   50 1
    53   28   29 ar
    54   28   51 1
    55   29   52 1
@<TRIPOS>SUBSTRUCTURE
     1 AQ4         1 GROUP   0 A     ****
