B49
                    3D
 Structure written by MMmdl.
 56 58  0  0  1  0            999 V2000
  -12.5570   70.4800  -38.3840 C   0  0  0  0  0  0
  -17.2200   78.9120  -37.0410 C   0  0  0  0  0  0
  -15.9490   78.6880  -37.6290 C   0  0  0  0  0  0
  -17.4610   76.4830  -36.5450 C   0  0  0  0  0  0
  -15.7520   71.3360  -36.5950 C   0  0  0  0  0  0
  -17.9580   77.8080  -36.5030 C   0  0  0  0  0  0
  -16.2070   76.2720  -37.1310 C   0  0  0  0  0  0
  -15.3940   75.0750  -37.3600 C   0  0  0  0  0  0
  -14.1310   75.5470  -38.0500 C   0  0  0  0  0  0
  -14.9040   68.8820  -36.6820 C   0  0  0  0  0  0
  -17.0050   71.1090  -35.8030 C   0  0  0  0  0  0
  -15.8450   73.8610  -36.9720 C   0  0  0  0  0  0
  -13.8060   70.9660  -37.7090 C   0  0  0  0  0  0
  -15.4740   77.3620  -37.6560 C   0  0  0  0  0  0
  -15.2880   72.5530  -37.0820 C   0  0  0  0  0  0
  -14.8080   70.3190  -36.9890 C   0  0  0  0  0  0
  -14.1260   72.3020  -37.7440 N   0  0  0  0  0  0
  -14.2720   76.9180  -38.1800 N   0  0  0  0  0  0
  -15.2650   68.5790  -35.3700 N   0  0  0  0  0  0
  -13.1940   74.8890  -38.4210 O   0  0  0  0  0  0
  -14.6630   68.0270  -37.5350 O   0  0  0  0  0  0
  -19.1470   78.0170  -35.9440 F   0  0  0  0  0  0
  -12.4682   69.3917  -38.2511 H   0  0  0  0  0  0
  -11.6824   70.9764  -37.9382 H   0  0  0  0  0  0
  -12.6049   70.7157  -39.4574 H   0  0  0  0  0  0
  -17.6300   79.9100  -36.9990 H   0  0  0  0  0  0
  -15.3690   79.5010  -38.0390 H   0  0  0  0  0  0
  -18.0310   75.6610  -36.1380 H   0  0  0  0  0  0
  -17.5237   72.0676  -35.6547 H   0  0  0  0  0  0
  -16.7473   70.6764  -34.8250 H   0  0  0  0  0  0
  -17.6631   70.4165  -36.3484 H   0  0  0  0  0  0
  -16.8183   73.7714  -36.4674 H   0  0  0  0  0  0
  -13.4672   73.0119  -38.2655 H   0  0  0  0  0  0
  -15.3286   67.4994  -35.1688 H   0  0  0  0  0  0
  -15.5500   69.5440  -34.2990 C   0  0  0  0  0  0
  -15.9380   69.0450  -32.8950 C   0  0  0  0  0  0
  -16.2230   70.0100  -31.8230 N   0  0  0  0  0  0
  -15.1350   70.4930  -30.9610 C   0  0  0  0  0  0
  -17.5960   70.4930  -31.6150 C   0  0  0  0  0  0
  -17.8940   71.5040  -30.4930 C   0  0  0  0  0  0
  -15.4340   71.5040  -29.8380 C   0  0  0  0  0  0
  -14.6620   70.1688  -34.1225 H   0  0  0  0  0  0
  -16.3946   70.1829  -34.5963 H   0  0  0  0  0  0
  -16.8562   68.4429  -32.9607 H   0  0  0  0  0  0
  -15.1236   68.4284  -32.4870 H   0  0  0  0  0  0
  -14.6767   69.6413  -30.4371 H   0  0  0  0  0  0
  -14.3752   70.9965  -31.5769 H   0  0  0  0  0  0
  -17.9499   70.9959  -32.5271 H   0  0  0  0  0  0
  -18.2538   69.6413  -31.3872 H   0  0  0  0  0  0
  -18.9672   71.7452  -30.4924 H   0  0  0  0  0  0
  -17.3119   72.4219  -30.6624 H   0  0  0  0  0  0
  -17.6158   71.0673  -29.5225 H   0  0  0  0  0  0
  -14.5028   71.7455  -29.3046 H   0  0  0  0  0  0
  -16.1571   71.0666  -29.1338 H   0  0  0  0  0  0
  -15.8556   72.4218  -30.2737 H   0  0  0  0  0  0
  -13.4762   77.5101  -38.6555 H   0  0  0  0  0  0
  1 13  1  0  0  0
  1 23  1  0  0  0
  1 24  1  0  0  0
  1 25  1  0  0  0
  2  3  2  0  0  0
  2  6  1  0  0  0
  2 26  1  0  0  0
  3 14  1  0  0  0
  3 27  1  0  0  0
  4  6  2  0  0  0
  4  7  1  0  0  0
  4 28  1  0  0  0
  5 11  1  0  0  0
  5 15  2  0  0  0
  5 16  1  0  0  0
  6 22  1  0  0  0
  7  8  1  0  0  0
  7 14  2  0  0  0
  8  9  1  0  0  0
  8 12  2  0  0  0
  9 18  1  0  0  0
  9 20  2  0  0  0
 10 16  1  0  0  0
 10 19  1  0  0  0
 10 21  2  0  0  0
 11 29  1  0  0  0
 11 30  1  0  0  0
 11 31  1  0  0  0
 12 15  1  0  0  0
 12 32  1  0  0  0
 13 16  2  0  0  0
 13 17  1  0  0  0
 14 18  1  0  0  0
 15 17  1  0  0  0
 17 33  1  0  0  0
 18 56  1  0  0  0
 19 34  1  0  0  0
 19 35  1  0  0  0
 35 36  1  0  0  0
 35 42  1  0  0  0
 35 43  1  0  0  0
 36 37  1  0  0  0
 36 44  1  0  0  0
 36 45  1  0  0  0
 37 38  1  0  0  0
 37 39  1  0  0  0
 38 41  1  0  0  0
 38 46  1  0  0  0
 38 47  1  0  0  0
 39 40  1  0  0  0
 39 48  1  0  0  0
 39 49  1  0  0  0
 40 50  1  0  0  0
 40 51  1  0  0  0
 40 52  1  0  0  0
 41 53  1  0  0  0
 41 54  1  0  0  0
 41 55  1  0  0  0
M  END
> <s_m_source_file>
C:\GitHub\mcce-charges\epik_inhibitors\output-new\Sunitinib\Sunitinib-input.mol2

> <i_m_source_file_index>
1

> <r_epik_Ionization_Penalty>
  2.2133

> <r_epik_Ionization_Penalty_Charging>
  0.0000

> <r_epik_Ionization_Penalty_Neutral>
  2.2133

> <r_epik_State_Penalty>
  0.0000

> <r_epik_Charging_Adjusted_Penalty>
1.55508128557602e-005

> <i_epik_Tot_Q>
0

> <i_epik_Tot_abs_Q>
0

$$$$
