AQ4
                    3D
 Structure written by MMmdl.
 52 54  0  0  1  0            999 V2000
   29.5520   -1.9890   53.4960 C   0  0  0  0  0  0
   28.8410   -1.0220   53.4320 C   0  0  0  0  0  0
   27.9890    0.0940   53.3660 C   0  0  0  0  0  0
   26.6060   -0.1190   53.3230 C   0  0  0  0  0  0
   25.7250    0.9720   53.2580 C   0  0  0  0  0  0
   24.2890    0.7120   53.2150 N   0  0  0  0  0  0
   23.4100   -0.2170   53.9080 C   0  0  0  0  0  0
   22.0370   -0.3090   53.5720 C   0  0  0  0  0  0
   21.5010    0.4760   52.5460 C   0  0  0  0  0  0
   20.1430    0.3760   52.2180 C   0  0  0  0  0  0
   19.5890    1.2200   51.1200 O   0  0  0  0  0  0
   20.5500    1.3620   50.0410 C   0  0  0  0  0  0
   20.2350    2.6450   49.2620 C   0  0  0  0  0  0
   18.9900    2.4850   48.5430 O   0  0  0  0  0  0
   17.7120    2.6180   49.3990 C   0  0  0  0  0  0
   19.3010   -0.5350   52.9230 C   0  0  0  0  0  0
   17.8280   -0.6790   52.5970 O   0  0  0  0  0  0
   17.2270    0.6010   52.2200 C   0  0  0  0  0  0
   15.7030    0.4940   52.0660 C   0  0  0  0  0  0
   15.1080    0.1670   53.3350 O   0  0  0  0  0  0
   13.8430   -0.6950   53.2210 C   0  0  0  0  0  0
   19.8450   -1.3180   53.9420 C   0  0  0  0  0  0
   21.1990   -1.2220   54.2640 C   0  0  0  0  0  0
   21.7470   -2.0390   55.3190 N   0  0  0  0  0  0
   23.1170   -1.9340   55.6420 C   0  0  0  0  0  0
   23.9430   -1.0230   54.9400 N   0  0  0  0  0  0
   26.2340    2.2920   53.2360 C   0  0  0  0  0  0
   27.6250    2.5090   53.2790 C   0  0  0  0  0  0
   28.5080    1.4100   53.3440 C   0  0  0  0  0  0
   30.2027   -2.8740   53.5546 H   0  0  0  0  0  0
   26.2160   -1.1260   53.3400 H   0  0  0  0  0  0
   23.6443    1.2956   52.5413 H   0  0  0  0  0  0
   22.1360    1.1620   52.0050 H   0  0  0  0  0  0
   21.5655    1.4208   50.4598 H   0  0  0  0  0  0
   20.4796    0.4928   49.3705 H   0  0  0  0  0  0
   20.1454    3.4873   49.9637 H   0  0  0  0  0  0
   21.0458    2.8482   48.5469 H   0  0  0  0  0  0
   16.8270    2.4805   48.7604 H   0  0  0  0  0  0
   17.6809    3.6169   49.8586 H   0  0  0  0  0  0
   17.7176    1.8514   50.1878 H   0  0  0  0  0  0
   17.4433    1.3502   52.9958 H   0  0  0  0  0  0
   17.6478    0.9351   51.2602 H   0  0  0  0  0  0
   15.3018    1.4553   51.7125 H   0  0  0  0  0  0
   15.4625   -0.2940   51.3371 H   0  0  0  0  0  0
   13.4485   -0.9020   54.2268 H   0  0  0  0  0  0
   14.0894   -1.6435   52.7214 H   0  0  0  0  0  0
   13.0846   -0.1572   52.6332 H   0  0  0  0  0  0
   19.2130   -2.0040   54.4860 H   0  0  0  0  0  0
   23.5360   -2.5490   56.4250 H   0  0  0  0  0  0
   25.5570    3.1320   53.1860 H   0  0  0  0  0  0
   28.0160    3.5160   53.2620 H   0  0  0  0  0  0
   29.5750    1.5730   53.3770 H   0  0  0  0  0  0
  1 30  1  0  0  0
  1  2  3  0  0  0
  2  3  1  0  0  0
  3  4  2  0  0  0
  3 29  1  0  0  0
  4 31  1  0  0  0
  4  5  1  0  0  0
  5  6  1  0  0  0
  5 27  2  0  0  0
  6  7  1  0  0  0
  6 32  1  0  0  0
  7 26  2  0  0  0
  7  8  1  0  0  0
  8 23  2  0  0  0
  8  9  1  0  0  0
  9 33  1  0  0  0
  9 10  2  0  0  0
 10 16  1  0  0  0
 10 11  1  0  0  0
 11 12  1  0  0  0
 12 34  1  0  0  0
 12 35  1  0  0  0
 12 13  1  0  0  0
 13 36  1  0  0  0
 13 37  1  0  0  0
 13 14  1  0  0  0
 14 15  1  0  0  0
 15 38  1  0  0  0
 15 39  1  0  0  0
 15 40  1  0  0  0
 16 22  2  0  0  0
 16 17  1  0  0  0
 17 18  1  0  0  0
 18 41  1  0  0  0
 18 42  1  0  0  0
 18 19  1  0  0  0
 19 20  1  0  0  0
 19 43  1  0  0  0
 19 44  1  0  0  0
 20 21  1  0  0  0
 21 45  1  0  0  0
 21 46  1  0  0  0
 21 47  1  0  0  0
 22 23  1  0  0  0
 22 48  1  0  0  0
 23 24  1  0  0  0
 24 25  2  0  0  0
 25 49  1  0  0  0
 25 26  1  0  0  0
 27 28  1  0  0  0
 27 50  1  0  0  0
 28 29  2  0  0  0
 28 51  1  0  0  0
 29 52  1  0  0  0
M  END
> <s_m_source_file>
C:\GitHub\mcce-charges\epik_inhibitors\output-new\Erlotinib\Erlotinib-input.mol2

> <i_m_source_file_index>
1

> <r_lp_tautomer_probability>
0.999978000241998

> <r_epik_Ionization_Penalty>
  0.0006

> <r_epik_Ionization_Penalty_Charging>
  0.0000

> <r_epik_Ionization_Penalty_Neutral>
  0.0006

> <r_epik_State_Penalty>
  0.0007

> <r_epik_Charging_Adjusted_Penalty>
0.000668686352736262

> <i_epik_Tot_Q>
0

> <i_epik_Tot_abs_Q>
0

$$$$
AQ4
                    3D
 Structure written by MMmdl.
 53 55  0  0  1  0            999 V2000
   29.5520   -1.9890   53.4960 C   0  0  0  0  0  0
   28.8410   -1.0220   53.4320 C   0  0  0  0  0  0
   27.9890    0.0940   53.3660 C   0  0  0  0  0  0
   26.6060   -0.1190   53.3230 C   0  0  0  0  0  0
   25.7250    0.9720   53.2580 C   0  0  0  0  0  0
   24.2890    0.7120   53.2150 N   0  0  0  0  0  0
   23.4100   -0.2170   53.9080 C   0  0  0  0  0  0
   22.0370   -0.3090   53.5720 C   0  0  0  0  0  0
   21.5010    0.4760   52.5460 C   0  0  0  0  0  0
   20.1430    0.3760   52.2180 C   0  0  0  0  0  0
   19.5890    1.2200   51.1200 O   0  0  0  0  0  0
   20.5500    1.3620   50.0410 C   0  0  0  0  0  0
   20.2350    2.6450   49.2620 C   0  0  0  0  0  0
   18.9900    2.4850   48.5430 O   0  0  0  0  0  0
   17.7120    2.6180   49.3990 C   0  0  0  0  0  0
   19.3010   -0.5350   52.9230 C   0  0  0  0  0  0
   17.8280   -0.6790   52.5970 O   0  0  0  0  0  0
   17.2270    0.6010   52.2200 C   0  0  0  0  0  0
   15.7030    0.4940   52.0660 C   0  0  0  0  0  0
   15.1080    0.1670   53.3350 O   0  0  0  0  0  0
   13.8430   -0.6950   53.2210 C   0  0  0  0  0  0
   19.8450   -1.3180   53.9420 C   0  0  0  0  0  0
   21.1990   -1.2220   54.2640 C   0  0  0  0  0  0
   21.7470   -2.0390   55.3190 N   0  3  0  0  0  0
   23.1170   -1.9340   55.6420 C   0  0  0  0  0  0
   23.9430   -1.0230   54.9400 N   0  0  0  0  0  0
   26.2340    2.2920   53.2360 C   0  0  0  0  0  0
   27.6250    2.5090   53.2790 C   0  0  0  0  0  0
   28.5080    1.4100   53.3440 C   0  0  0  0  0  0
   30.2027   -2.8740   53.5546 H   0  0  0  0  0  0
   26.2160   -1.1260   53.3400 H   0  0  0  0  0  0
   23.6443    1.2956   52.5413 H   0  0  0  0  0  0
   22.1360    1.1620   52.0050 H   0  0  0  0  0  0
   21.5655    1.4208   50.4598 H   0  0  0  0  0  0
   20.4796    0.4928   49.3705 H   0  0  0  0  0  0
   20.1454    3.4873   49.9637 H   0  0  0  0  0  0
   21.0458    2.8482   48.5469 H   0  0  0  0  0  0
   16.8270    2.4805   48.7604 H   0  0  0  0  0  0
   17.6809    3.6169   49.8586 H   0  0  0  0  0  0
   17.7176    1.8514   50.1878 H   0  0  0  0  0  0
   17.4433    1.3502   52.9958 H   0  0  0  0  0  0
   17.6478    0.9351   51.2602 H   0  0  0  0  0  0
   15.3018    1.4553   51.7125 H   0  0  0  0  0  0
   15.4625   -0.2940   51.3371 H   0  0  0  0  0  0
   13.4485   -0.9020   54.2268 H   0  0  0  0  0  0
   14.0894   -1.6435   52.7214 H   0  0  0  0  0  0
   13.0846   -0.1572   52.6332 H   0  0  0  0  0  0
   19.2130   -2.0040   54.4860 H   0  0  0  0  0  0
   23.5360   -2.5490   56.4250 H   0  0  0  0  0  0
   25.5570    3.1320   53.1860 H   0  0  0  0  0  0
   28.0160    3.5160   53.2620 H   0  0  0  0  0  0
   29.5750    1.5730   53.3770 H   0  0  0  0  0  0
   21.0981   -2.7385   55.8663 H   0  0  0  0  0  0
  1 30  1  0  0  0
  1  2  3  0  0  0
  2  3  1  0  0  0
  3  4  2  0  0  0
  3 29  1  0  0  0
  4 31  1  0  0  0
  4  5  1  0  0  0
  5  6  1  0  0  0
  5 27  2  0  0  0
  6  7  1  0  0  0
  6 32  1  0  0  0
  7 26  2  0  0  0
  7  8  1  0  0  0
  8 23  2  0  0  0
  8  9  1  0  0  0
  9 33  1  0  0  0
  9 10  2  0  0  0
 10 16  1  0  0  0
 10 11  1  0  0  0
 11 12  1  0  0  0
 12 34  1  0  0  0
 12 35  1  0  0  0
 12 13  1  0  0  0
 13 36  1  0  0  0
 13 37  1  0  0  0
 13 14  1  0  0  0
 14 15  1  0  0  0
 15 38  1  0  0  0
 15 39  1  0  0  0
 15 40  1  0  0  0
 16 22  2  0  0  0
 16 17  1  0  0  0
 17 18  1  0  0  0
 18 41  1  0  0  0
 18 42  1  0  0  0
 18 19  1  0  0  0
 19 20  1  0  0  0
 19 43  1  0  0  0
 19 44  1  0  0  0
 20 21  1  0  0  0
 21 45  1  0  0  0
 21 46  1  0  0  0
 21 47  1  0  0  0
 22 23  1  0  0  0
 22 48  1  0  0  0
 23 24  1  0  0  0
 24 25  2  0  0  0
 24 53  1  0  0  0
 25 49  1  0  0  0
 25 26  1  0  0  0
 27 28  1  0  0  0
 27 50  1  0  0  0
 28 29  2  0  0  0
 28 51  1  0  0  0
 29 52  1  0  0  0
M  CHG  1  24   1
M  END
> <s_m_source_file>
C:\GitHub\mcce-charges\epik_inhibitors\output-new\Erlotinib\Erlotinib-input.mol2

> <i_m_source_file_index>
1

> <r_lp_tautomer_probability>
0.993507999998615

> <r_epik_Ionization_Penalty>
  4.4229

> <r_epik_Ionization_Penalty_Charging>
  4.4227

> <r_epik_Ionization_Penalty_Neutral>
  0.0002

> <r_epik_State_Penalty>
  4.0329

> <r_epik_Charging_Adjusted_Penalty>
8.45555697976164

> <i_epik_Tot_Q>
1

> <i_epik_Tot_abs_Q>
1

$$$$
