@<TRIPOS>MOLECULE
AQ4
52   54    1
SMALL
USER_CHARGES


@<TRIPOS>ATOM
      1 C1         29.5520   -1.9890   53.4960 C.1       1 AQ4         0.0000 
      2 C2         28.8410   -1.0220   53.4320 C.1       1 AQ4         0.0000 
      3 C3         27.9890    0.0940   53.3660 C.ar      1 AQ4         0.0000 
      4 C4         26.6060   -0.1190   53.3230 C.ar      1 AQ4         0.0000 
      5 C5         25.7250    0.9720   53.2580 C.ar      1 AQ4         0.0000 
      6 N1         24.2890    0.7120   53.2150 N.pl3     1 AQ4         0.0000 
      7 C6         23.4100   -0.2170   53.9080 C.ar      1 AQ4         0.0000 
      8 C7         22.0370   -0.3090   53.5720 C.ar      1 AQ4         0.0000 
      9 C8         21.5010    0.4760   52.5460 C.ar      1 AQ4         0.0000 
     10 C9         20.1430    0.3760   52.2180 C.ar      1 AQ4         0.0000 
     11 O1         19.5890    1.2200   51.1200 O.3       1 AQ4         0.0000 
     12 C10        20.5500    1.3620   50.0410 C.3       1 AQ4         0.0000 
     13 C11        20.2350    2.6450   49.2620 C.3       1 AQ4         0.0000 
     14 O2         18.9900    2.4850   48.5430 O.3       1 AQ4         0.0000 
     15 C12        17.7120    2.6180   49.3990 C.3       1 AQ4         0.0000 
     16 C13        19.3010   -0.5350   52.9230 C.ar      1 AQ4         0.0000 
     17 O3         17.8280   -0.6790   52.5970 O.3       1 AQ4         0.0000 
     18 C14        17.2270    0.6010   52.2200 C.3       1 AQ4         0.0000 
     19 C15        15.7030    0.4940   52.0660 C.3       1 AQ4         0.0000 
     20 O4         15.1080    0.1670   53.3350 O.3       1 AQ4         0.0000 
     21 C16        13.8430   -0.6950   53.2210 C.3       1 AQ4         0.0000 
     22 C17        19.8450   -1.3180   53.9420 C.ar      1 AQ4         0.0000 
     23 C18        21.1990   -1.2220   54.2640 C.ar      1 AQ4         0.0000 
     24 N2         21.7470   -2.0390   55.3190 N.ar      1 AQ4         0.0000 
     25 C19        23.1170   -1.9340   55.6420 C.ar      1 AQ4         0.0000 
     26 N3         23.9430   -1.0230   54.9400 N.ar      1 AQ4         0.0000 
     27 C20        26.2340    2.2920   53.2360 C.ar      1 AQ4         0.0000 
     28 C21        27.6250    2.5090   53.2790 C.ar      1 AQ4         0.0000 
     29 C22        28.5080    1.4100   53.3440 C.ar      1 AQ4         0.0000 
     30 H1         30.2027   -2.8740   53.5546 H         1 AQ4         0.0000 
     31 H2         26.2160   -1.1260   53.3400 H         1 AQ4         0.0000 
     32 H3         23.6443    1.2956   52.5413 H         1 AQ4         0.0000 
     33 H4         22.1360    1.1620   52.0050 H         1 AQ4         0.0000 
     34 H5         21.5655    1.4208   50.4598 H         1 AQ4         0.0000 
     35 H6         20.4796    0.4928   49.3705 H         1 AQ4         0.0000 
     36 H7         20.1454    3.4873   49.9637 H         1 AQ4         0.0000 
     37 H8         21.0458    2.8482   48.5469 H         1 AQ4         0.0000 
     38 H9         16.8270    2.4805   48.7604 H         1 AQ4         0.0000 
     39 H10        17.6809    3.6169   49.8586 H         1 AQ4         0.0000 
     40 H11        17.7176    1.8514   50.1878 H         1 AQ4         0.0000 
     41 H12        17.4433    1.3502   52.9958 H         1 AQ4         0.0000 
     42 H13        17.6478    0.9351   51.2602 H         1 AQ4         0.0000 
     43 H14        15.3018    1.4553   51.7125 H         1 AQ4         0.0000 
     44 H15        15.4625   -0.2940   51.3371 H         1 AQ4         0.0000 
     45 H16        13.4485   -0.9020   54.2268 H         1 AQ4         0.0000 
     46 H17        14.0894   -1.6435   52.7214 H         1 AQ4         0.0000 
     47 H18        13.0846   -0.1572   52.6332 H         1 AQ4         0.0000 
     48 H19        19.2130   -2.0040   54.4860 H         1 AQ4         0.0000 
     49 H20        23.5360   -2.5490   56.4250 H         1 AQ4         0.0000 
     50 H21        25.5570    3.1320   53.1860 H         1 AQ4         0.0000 
     51 H22        28.0160    3.5160   53.2620 H         1 AQ4         0.0000 
     52 H23        29.5750    1.5730   53.3770 H         1 AQ4         0.0000 
@<TRIPOS>BOND
     1    1   30 1    
     2    1    2 3    
     3    2    3 1    
     4    3    4 ar   
     5    3   29 ar   
     6    4   31 1    
     7    4    5 ar   
     8    5    6 1    
     9    5   27 ar   
    10    6    7 1    
    11    6   32 1    
    12    7   26 ar   
    13    7    8 ar   
    14    8   23 ar   
    15    8    9 ar   
    16    9   33 1    
    17    9   10 ar   
    18   10   16 ar   
    19   10   11 1    
    20   11   12 1    
    21   12   34 1    
    22   12   35 1    
    23   12   13 1    
    24   13   36 1    
    25   13   37 1    
    26   13   14 1    
    27   14   15 1    
    28   15   38 1    
    29   15   39 1    
    30   15   40 1    
    31   16   22 ar   
    32   16   17 1    
    33   17   18 1    
    34   18   41 1    
    35   18   42 1    
    36   18   19 1    
    37   19   20 1    
    38   19   43 1    
    39   19   44 1    
    40   20   21 1    
    41   21   45 1    
    42   21   46 1    
    43   21   47 1    
    44   22   23 ar   
    45   22   48 1    
    46   23   24 ar   
    47   24   25 ar   
    48   25   49 1    
    49   25   26 ar   
    50   27   28 ar   
    51   27   50 1    
    52   28   29 ar   
    53   28   51 1    
    54   29   52 1    
@<TRIPOS>SUBSTRUCTURE
     1 AQ4         1 GROUP             0       ****    0 ROOT    
@<TRIPOS>MOLECULE
AQ4
53   55    1
SMALL
USER_CHARGES


@<TRIPOS>ATOM
      1 C1         29.5520   -1.9890   53.4960 C.1       1 AQ4         0.0000 
      2 C2         28.8410   -1.0220   53.4320 C.1       1 AQ4         0.0000 
      3 C3         27.9890    0.0940   53.3660 C.ar      1 AQ4         0.0000 
      4 C4         26.6060   -0.1190   53.3230 C.ar      1 AQ4         0.0000 
      5 C5         25.7250    0.9720   53.2580 C.ar      1 AQ4         0.0000 
      6 N1         24.2890    0.7120   53.2150 N.pl3     1 AQ4         0.0000 
      7 C6         23.4100   -0.2170   53.9080 C.ar      1 AQ4         0.0000 
      8 C7         22.0370   -0.3090   53.5720 C.ar      1 AQ4         0.0000 
      9 C8         21.5010    0.4760   52.5460 C.ar      1 AQ4         0.0000 
     10 C9         20.1430    0.3760   52.2180 C.ar      1 AQ4         0.0000 
     11 O1         19.5890    1.2200   51.1200 O.3       1 AQ4         0.0000 
     12 C10        20.5500    1.3620   50.0410 C.3       1 AQ4         0.0000 
     13 C11        20.2350    2.6450   49.2620 C.3       1 AQ4         0.0000 
     14 O2         18.9900    2.4850   48.5430 O.3       1 AQ4         0.0000 
     15 C12        17.7120    2.6180   49.3990 C.3       1 AQ4         0.0000 
     16 C13        19.3010   -0.5350   52.9230 C.ar      1 AQ4         0.0000 
     17 O3         17.8280   -0.6790   52.5970 O.3       1 AQ4         0.0000 
     18 C14        17.2270    0.6010   52.2200 C.3       1 AQ4         0.0000 
     19 C15        15.7030    0.4940   52.0660 C.3       1 AQ4         0.0000 
     20 O4         15.1080    0.1670   53.3350 O.3       1 AQ4         0.0000 
     21 C16        13.8430   -0.6950   53.2210 C.3       1 AQ4         0.0000 
     22 C17        19.8450   -1.3180   53.9420 C.ar      1 AQ4         0.0000 
     23 C18        21.1990   -1.2220   54.2640 C.ar      1 AQ4         0.0000 
     24 N2         21.7470   -2.0390   55.3190 N.pl3     1 AQ4         0.0000 
     25 C19        23.1170   -1.9340   55.6420 C.ar      1 AQ4         0.0000 
     26 N3         23.9430   -1.0230   54.9400 N.ar      1 AQ4         0.0000 
     27 C20        26.2340    2.2920   53.2360 C.ar      1 AQ4         0.0000 
     28 C21        27.6250    2.5090   53.2790 C.ar      1 AQ4         0.0000 
     29 C22        28.5080    1.4100   53.3440 C.ar      1 AQ4         0.0000 
     30 H1         30.2027   -2.8740   53.5546 H         1 AQ4         0.0000 
     31 H2         26.2160   -1.1260   53.3400 H         1 AQ4         0.0000 
     32 H3         23.6443    1.2956   52.5413 H         1 AQ4         0.0000 
     33 H4         22.1360    1.1620   52.0050 H         1 AQ4         0.0000 
     34 H5         21.5655    1.4208   50.4598 H         1 AQ4         0.0000 
     35 H6         20.4796    0.4928   49.3705 H         1 AQ4         0.0000 
     36 H7         20.1454    3.4873   49.9637 H         1 AQ4         0.0000 
     37 H8         21.0458    2.8482   48.5469 H         1 AQ4         0.0000 
     38 H9         16.8270    2.4805   48.7604 H         1 AQ4         0.0000 
     39 H10        17.6809    3.6169   49.8586 H         1 AQ4         0.0000 
     40 H11        17.7176    1.8514   50.1878 H         1 AQ4         0.0000 
     41 H12        17.4433    1.3502   52.9958 H         1 AQ4         0.0000 
     42 H13        17.6478    0.9351   51.2602 H         1 AQ4         0.0000 
     43 H14        15.3018    1.4553   51.7125 H         1 AQ4         0.0000 
     44 H15        15.4625   -0.2940   51.3371 H         1 AQ4         0.0000 
     45 H16        13.4485   -0.9020   54.2268 H         1 AQ4         0.0000 
     46 H17        14.0894   -1.6435   52.7214 H         1 AQ4         0.0000 
     47 H18        13.0846   -0.1572   52.6332 H         1 AQ4         0.0000 
     48 H19        19.2130   -2.0040   54.4860 H         1 AQ4         0.0000 
     49 H20        23.5360   -2.5490   56.4250 H         1 AQ4         0.0000 
     50 H21        25.5570    3.1320   53.1860 H         1 AQ4         0.0000 
     51 H22        28.0160    3.5160   53.2620 H         1 AQ4         0.0000 
     52 H23        29.5750    1.5730   53.3770 H         1 AQ4         0.0000 
     53 H53        21.0981   -2.7385   55.8663 H         1 AQ4         0.0000 
@<TRIPOS>BOND
     1    1   30 1    
     2    1    2 3    
     3    2    3 1    
     4    3    4 ar   
     5    3   29 ar   
     6    4   31 1    
     7    4    5 ar   
     8    5    6 1    
     9    5   27 ar   
    10    6    7 1    
    11    6   32 1    
    12    7   26 ar   
    13    7    8 ar   
    14    8   23 ar   
    15    8    9 ar   
    16    9   33 1    
    17    9   10 ar   
    18   10   16 ar   
    19   10   11 1    
    20   11   12 1    
    21   12   34 1    
    22   12   35 1    
    23   12   13 1    
    24   13   36 1    
    25   13   37 1    
    26   13   14 1    
    27   14   15 1    
    28   15   38 1    
    29   15   39 1    
    30   15   40 1    
    31   16   22 ar   
    32   16   17 1    
    33   17   18 1    
    34   18   41 1    
    35   18   42 1    
    36   18   19 1    
    37   19   20 1    
    38   19   43 1    
    39   19   44 1    
    40   20   21 1    
    41   21   45 1    
    42   21   46 1    
    43   21   47 1    
    44   22   23 ar   
    45   22   48 1    
    46   23   24 ar   
    47   24   25 ar   
    48   24   53 1    
    49   25   49 1    
    50   25   26 ar   
    51   27   28 ar   
    52   27   50 1    
    53   28   29 ar   
    54   28   51 1    
    55   29   52 1    
@<TRIPOS>SUBSTRUCTURE
     1 AQ4         1 GROUP             0       ****    0 ROOT    
