NIL
  CCTOOLS-0721180805

 61 65  0  0  0  0  0  0  0  0999 V2000
   27.4370    2.8950   51.2430 O   0  0  0  0  0
   27.1160    2.6680   52.3840 C   0  0  0  0  0
   26.0130    3.0980   53.0150 N   0  0  0  0  0
   25.1140    4.0420   52.5350 C   0  0  0  0  0
   24.3180    4.8060   53.4240 C   0  0  0  0  0
   23.4180    5.7650   52.9510 C   0  0  0  0  0
   22.6560    6.5560   53.8240 N   0  0  0  0  0
   22.3140    6.3130   55.1530 C   0  0  0  0  0
   21.4970    7.3060   55.5670 C   0  0  0  0  0
   20.8800    7.4930   56.9320 C   0  0  0  0  0
   21.3460    8.1740   54.5420 N   0  0  0  0  0
   22.0110    7.6890   53.5220 C   0  0  0  0  0
   23.2420    5.9220   51.5800 C   0  0  0  0  0
   24.8860    4.1760   51.1480 C   0  0  0  0  0
   23.9850    5.1690   50.6680 C   0  0  0  0  0
   23.8080    5.3300   49.1930 C   0  0  0  0  0
   23.7250    4.1770   48.5000 F   0  0  0  0  0
   22.6440    5.9040   48.9120 F   0  0  0  0  0
   24.8490    5.9670   48.6180 F   0  0  0  0  0
   27.8680    1.5870   53.0510 C   0  0  0  0  0
   27.5140    1.0020   54.2760 C   0  0  0  0  0
   28.2050   -0.1000   54.7820 C   0  0  0  0  0
   29.2140   -0.7110   54.0550 C   0  0  0  0  0
   29.9540   -1.9170   54.6160 C   0  0  0  0  0
   29.5010   -0.1980   52.7910 C   0  0  0  0  0
   28.8130    0.9240   52.3120 C   0  0  0  0  0
   30.6200   -0.6930   52.1090 N   0  0  0  0  0
   31.8450   -0.0340   52.2300 C   0  0  0  0  0
   32.1570    1.0110   52.9860 N   0  0  0  0  0
   33.4140    1.4820   52.8790 C   0  0  0  0  0
   34.3070    0.9710   52.0170 C   0  0  0  0  0
   33.9360   -0.0810   51.2560 C   0  0  0  0  0
   32.7080   -0.6040   51.3500 N   0  0  0  0  0
   34.8530   -0.7620   50.3050 C   0  0  0  0  0
   36.1840   -0.3460   50.1410 C   0  0  0  0  0
   36.9880   -1.0040   49.2190 C   0  0  0  0  0
   36.4440   -2.0750   48.5110 C   0  0  0  0  0
   35.1680   -2.4770   48.6290 N   0  0  0  0  0
   34.4000   -1.8440   49.5250 C   0  0  0  0  0
   25.8200    2.7030   53.9130 H   0  0  0  0  0
   24.4090    4.6440   54.4880 H   0  0  0  0  0
   22.6450    5.4750   55.7490 H   0  0  0  0  0
   21.6750    7.5380   57.6910 H   0  0  0  0  0
   20.3030    8.4300   56.9480 H   0  0  0  0  0
   20.2120    6.6470   57.1510 H   0  0  0  0  0
   22.0360    8.1520   52.5470 H   0  0  0  0  0
   22.5200    6.6370   51.2150 H   0  0  0  0  0
   25.3950    3.5260   50.4520 H   0  0  0  0  0
   26.6890    1.4130   54.8390 H   0  0  0  0  0
   27.9480   -0.4840   55.7580 H   0  0  0  0  0
   30.1330   -2.6450   53.8110 H   0  0  0  0  0
   30.9170   -1.5930   55.0370 H   0  0  0  0  0
   29.3470   -2.3850   55.4050 H   0  0  0  0  0
   29.0370    1.2820   51.3180 H   0  0  0  0  0
   30.5420   -1.5120   51.5400 H   0  0  0  0  0
   33.7160    2.3040   53.5120 H   0  0  0  0  0
   35.2980    1.3910   51.9340 H   0  0  0  0  0
   36.5770    0.4740   50.7240 H   0  0  0  0  0
   38.0090   -0.6940   49.0550 H   0  0  0  0  0
   37.0860   -2.6120   47.8280 H   0  0  0  0  0
   33.3820   -2.1800   49.6560 H   0  0  0  0  0
  1  2  2  0  0  0
  2  3  1  0  0  0
  2 20  1  0  0  0
  3  4  1  0  0  0
  3 40  1  0  0  0
  4  5  2  0  0  0
  4 14  1  0  0  0
  5  6  1  0  0  0
  5 41  1  0  0  0
  6  7  1  0  0  0
  6 13  2  0  0  0
  7  8  1  0  0  0
  7 12  1  0  0  0
  8  9  2  0  0  0
  8 42  1  0  0  0
  9 10  1  0  0  0
  9 11  1  0  0  0
 10 43  1  0  0  0
 10 44  1  0  0  0
 10 45  1  0  0  0
 11 12  2  0  0  0
 12 46  1  0  0  0
 13 15  1  0  0  0
 13 47  1  0  0  0
 14 15  2  0  0  0
 14 48  1  0  0  0
 15 16  1  0  0  0
 16 17  1  0  0  0
 16 18  1  0  0  0
 16 19  1  0  0  0
 20 21  2  0  0  0
 20 26  1  0  0  0
 21 22  1  0  0  0
 21 49  1  0  0  0
 22 23  2  0  0  0
 22 50  1  0  0  0
 23 24  1  0  0  0
 23 25  1  0  0  0
 24 51  1  0  0  0
 24 52  1  0  0  0
 24 53  1  0  0  0
 25 26  2  0  0  0
 25 27  1  0  0  0
 26 54  1  0  0  0
 27 28  1  0  0  0
 27 55  1  0  0  0
 28 29  2  0  0  0
 28 33  1  0  0  0
 29 30  1  0  0  0
 30 31  2  0  0  0
 30 56  1  0  0  0
 31 32  1  0  0  0
 31 57  1  0  0  0
 32 33  2  0  0  0
 32 34  1  0  0  0
 34 35  2  0  0  0
 34 39  1  0  0  0
 35 36  1  0  0  0
 35 58  1  0  0  0
 36 37  2  0  0  0
 36 59  1  0  0  0
 37 38  1  0  0  0
 37 60  1  0  0  0
 38 39  2  0  0  0
 39 61  1  0  0  0
M  END
$$$$
