IRE
                    3D
 Structure written by MMmdl.
 56 59  0  0  1  0            999 V2000
  -45.4800   -2.7160  -15.7450 C   0  0  0  0  0  0
  -44.4060   -3.5920  -15.0750 C   0  0  0  0  0  0
  -43.4570   -4.0220  -16.1080 O   0  0  0  0  0  0
  -44.0750   -4.8660  -17.1340 C   0  0  0  0  0  0
  -45.2550   -4.1730  -17.8460 C   0  0  0  0  0  0
  -46.1310   -3.3930  -16.9140 N   0  0  0  0  0  0
  -46.7510   -2.3190  -17.7170 C   0  0  0  0  0  0
  -48.2760   -2.4690  -17.8210 C   0  0  0  0  0  0
  -48.8310   -1.4830  -18.8750 C   0  0  0  0  0  0
  -49.1940   -0.1540  -18.3610 O   0  0  0  0  0  0
  -50.2350    0.4780  -19.0000 C   0  0  0  0  0  0
  -51.1310    1.2010  -18.2160 C   0  0  0  0  0  0
  -52.1950    1.8590  -18.8390 C   0  0  0  0  0  0
  -50.9480    1.2280  -16.8510 O   0  0  0  0  0  0
  -51.1650    2.4870  -16.1950 C   0  0  0  0  0  0
  -50.3990    0.4370  -20.3940 C   0  0  0  0  0  0
  -51.4580    1.1010  -21.0030 C   0  0  0  0  0  0
  -52.3520    1.8070  -20.2220 C   0  0  0  0  0  0
  -53.3700    2.4460  -20.8190 N   0  0  0  0  0  0
  -53.5590    2.4110  -22.1310 C   0  0  0  0  0  0
  -52.7310    1.7450  -22.9050 N   0  0  0  0  0  0
  -51.6810    1.0850  -22.3780 C   0  0  0  0  0  0
  -50.8760    0.4060  -23.1830 N   0  3  0  0  0  0
  -50.9780    0.4720  -24.5090 C   0  0  0  0  0  0
  -50.9250    1.7140  -25.1330 C   0  0  0  0  0  0
  -51.0070    1.8060  -26.5120 C   0  0  0  0  0  0
  -50.9430    3.3600  -27.2400 Cl  0  0  0  0  0  0
  -51.1410    0.6670  -27.2930 C   0  0  0  0  0  0
  -51.2180    0.7930  -28.6340 F   0  0  0  0  0  0
  -51.1890   -0.5850  -26.6740 C   0  0  0  0  0  0
  -51.1030   -0.6820  -25.2800 C   0  0  0  0  0  0
  -46.2659   -2.4759  -15.0137 H   0  0  0  0  0  0
  -45.0199   -1.7850  -16.1077 H   0  0  0  0  0  0
  -43.8853   -3.0071  -14.3025 H   0  0  0  0  0  0
  -44.8838   -4.4679  -14.6118 H   0  0  0  0  0  0
  -43.3259   -5.1231  -17.8973 H   0  0  0  0  0  0
  -44.4566   -5.7874  -16.6699 H   0  0  0  0  0  0
  -44.8677   -3.4734  -18.6013 H   0  0  0  0  0  0
  -45.8836   -4.9309  -18.3364 H   0  0  0  0  0  0
  -46.5372   -1.3446  -17.2535 H   0  0  0  0  0  0
  -46.3383   -2.3385  -18.7364 H   0  0  0  0  0  0
  -48.5236   -3.4980  -18.1209 H   0  0  0  0  0  0
  -48.7333   -2.2516  -16.8445 H   0  0  0  0  0  0
  -48.0757   -1.3197  -19.6579 H   0  0  0  0  0  0
  -49.7420   -1.9031  -19.3263 H   0  0  0  0  0  0
  -52.9030    2.4140  -18.2420 H   0  0  0  0  0  0
  -50.9872    2.3734  -15.1154 H   0  0  0  0  0  0
  -52.2016    2.8144  -16.3635 H   0  0  0  0  0  0
  -50.4724    3.2375  -16.6037 H   0  0  0  0  0  0
  -49.6960   -0.1160  -20.9990 H   0  0  0  0  0  0
  -54.0848    3.0254  -20.2163 H   0  0  0  0  0  0
  -54.3980    2.9330  -22.5660 H   0  0  0  0  0  0
  -50.8190    2.6100  -24.5390 H   0  0  0  0  0  0
  -51.2930   -1.4790  -27.2720 H   0  0  0  0  0  0
  -51.1340   -1.6500  -24.8030 H   0  0  0  0  0  0
  -50.0915   -0.2388  -22.7602 H   0  0  0  0  0  0
  1  2  1  0  0  0
  1  6  1  0  0  0
  1 32  1  0  0  0
  1 33  1  0  0  0
  2  3  1  0  0  0
  2 34  1  0  0  0
  2 35  1  0  0  0
  3  4  1  0  0  0
  4  5  1  0  0  0
  4 36  1  0  0  0
  4 37  1  0  0  0
  5  6  1  0  0  0
  5 38  1  0  0  0
  5 39  1  0  0  0
  6  7  1  0  0  0
  7  8  1  0  0  0
  7 40  1  0  0  0
  7 41  1  0  0  0
  8  9  1  0  0  0
  8 42  1  0  0  0
  8 43  1  0  0  0
  9 10  1  0  0  0
  9 44  1  0  0  0
  9 45  1  0  0  0
 10 11  1  0  0  0
 11 12  2  0  0  0
 11 16  1  0  0  0
 12 13  1  0  0  0
 12 14  1  0  0  0
 13 18  2  0  0  0
 13 46  1  0  0  0
 14 15  1  0  0  0
 15 47  1  0  0  0
 15 48  1  0  0  0
 15 49  1  0  0  0
 16 17  2  0  0  0
 16 50  1  0  0  0
 17 18  1  0  0  0
 17 22  1  0  0  0
 18 19  1  0  0  0
 19 20  1  0  0  0
 19 51  1  0  0  0
 20 21  2  0  0  0
 20 52  1  0  0  0
 21 22  1  0  0  0
 22 23  2  0  0  0
 23 24  1  0  0  0
 23 56  1  0  0  0
 24 25  2  0  0  0
 24 31  1  0  0  0
 25 26  1  0  0  0
 25 53  1  0  0  0
 26 27  1  0  0  0
 26 28  2  0  0  0
 28 29  1  0  0  0
 28 30  1  0  0  0
 30 31  2  0  0  0
 30 54  1  0  0  0
 31 55  1  0  0  0
M  CHG  1  23   1
M  END
> <s_m_source_file>
/Users/choderaj/github/choderalab/mcce-charges/mcce-charges.jchodera/epik_inhibitors/output/Gefitinib/Gefitinib-input.mol2

> <i_m_source_file_index>
1

> <r_lp_tautomer_probability>
1

> <r_epik_Ionization_Penalty>
  0.3812

> <r_epik_Ionization_Penalty_Charging>
  0.0002

> <r_epik_Ionization_Penalty_Neutral>
  0.3810

> <r_epik_State_Penalty>
 -0.0000

> <i_epik_Tot_Q>
1

> <s_epik_Chemistry_Notes>
This compound has an imine and may undergo hydrolysis.

$$$$
