@<TRIPOS>MOLECULE
~{N}-(3-chloro-4-fluoro-phenyl)-7-methoxy-6-(3-morpholinopropoxy)quinazolin-4-amine
55   58    1
SMALL
USER_CHARGES


@<TRIPOS>ATOM
      1 C1         -0.1002   -2.1051    5.6392 C.3       1 GEF         0.1191 
      2 O1          1.1895   -1.9793    5.0516 O.3       1 GEF        -0.3509 
      3 C2          1.5743   -2.9699    4.1989 C.ar      1 GEF         0.0945 
      4 C3          2.2530   -4.0830    4.7036 C.ar      1 GEF        -0.1812 
      5 C4          2.6675   -5.1220    3.8739 C.ar      1 GEF         0.4324 
      6 C5          2.3820   -5.0193    2.5026 C.ar      1 GEF        -0.2840 
      7 C6          1.7000   -3.9033    1.9874 C.ar      1 GEF        -0.1137 
      8 C7          1.2972   -2.8797    2.8394 C.ar      1 GEF         0.0889 
      9 O2          0.6330   -1.7950    2.3306 O.3       1 GEF        -0.3429 
     10 C8          1.3179   -1.0276    1.3495 C.3       1 GEF         0.1314 
     11 C9          0.8517    0.4200    1.4459 C.3       1 GEF        -0.0920 
     12 C10         1.1265    1.0393    2.8099 C.3       1 GEF         0.1804 
     13 N1          2.5492    1.0487    3.1440 N.3       1 GEF        -0.7380 
     14 C11         3.2453    2.1290    2.4314 C.3       1 GEF         0.1371 
     15 C12         4.7249    2.1260    2.8050 C.3       1 GEF         0.1278 
     16 O3          4.8817    2.2782    4.2162 O.3       1 GEF        -0.4168 
     17 C13         4.2352    1.2145    4.9163 C.3       1 GEF         0.1278 
     18 C14         2.7439    1.1944    4.5933 C.3       1 GEF         0.1371 
     19 C15         2.8117   -6.0765    1.7055 C.ar      1 GEF         0.6900 
     20 N2          3.4661   -7.1548    2.1764 N.ar      1 GEF        -0.7511 
     21 C16         3.6829   -7.1434    3.5014 C.ar      1 GEF         0.6669 
     22 N3          3.3190   -6.1849    4.3773 N.ar      1 GEF        -0.7040 
     23 N4          2.5593   -6.0433    0.3114 N.pl3     1 GEF        -0.7138 
     24 C17         2.3463   -7.0562   -0.6370 C.ar      1 GEF         0.1134 
     25 C18         2.7268   -6.8592   -1.9645 C.ar      1 GEF        -0.0772 
     26 C19         2.5150   -7.8652   -2.9072 C.ar      1 GEF        -0.1507 
     27 C20         1.9227   -9.0681   -2.5226 C.ar      1 GEF         0.1283 
     28 C21         1.5422   -9.2650   -1.1951 C.ar      1 GEF        -0.0091 
     29 C22         1.7539   -8.2590   -0.2523 C.ar      1 GEF        -0.1434 
     30 Cl1         0.8111  -10.7475   -0.7142 Cl        1 GEF        -0.0648 
     31 F1          1.7259  -10.0257   -3.4400 F         1 GEF        -0.1244 
     32 H1         -0.2866   -1.2469    6.3016 H         1 GEF         0.0460 
     33 H2         -0.1478   -3.0361    6.2231 H         1 GEF         0.0460 
     34 H3         -0.8632   -2.1296    4.8472 H         1 GEF         0.0460 
     35 H4          2.4609   -4.1359    5.7713 H         1 GEF         0.1705 
     36 H5          1.4750   -3.8159    0.9270 H         1 GEF         0.1460 
     37 H6          2.4014   -1.0834    1.5310 H         1 GEF         0.0505 
     38 H7          1.0927   -1.4262    0.3493 H         1 GEF         0.0505 
     39 H8          1.3752    1.0248    0.6908 H         1 GEF         0.0612 
     40 H9         -0.2326    0.4687    1.2673 H         1 GEF         0.0612 
     41 H10         0.7698    2.0798    2.8187 H         1 GEF         0.0340 
     42 H11         0.6002    0.4646    3.5863 H         1 GEF         0.0340 
     43 H12         3.1440    1.9774    1.3466 H         1 GEF         0.0402 
     44 H13         2.8022    3.0967    2.7094 H         1 GEF         0.0402 
     45 H14         5.1795    1.1737    2.4945 H         1 GEF         0.0539 
     46 H15         5.2333    2.9582    2.2960 H         1 GEF         0.0539 
     47 H16         4.6798    0.2543    4.6159 H         1 GEF         0.0539 
     48 H17         4.3653    1.3559    5.9994 H         1 GEF         0.0539 
     49 H18         2.2862    2.1356    4.9319 H         1 GEF         0.0402 
     50 H19         2.2709    0.3486    5.1137 H         1 GEF         0.0402 
     51 H20         4.2073   -7.9970    3.9134 H         1 GEF         0.0564 
     52 H21         2.5021   -5.0788   -0.2144 H         1 GEF         0.4246 
     53 H22         3.1891   -5.9256   -2.2749 H         1 GEF         0.1696 
     54 H23         2.8112   -7.7123   -3.9408 H         1 GEF         0.1585 
     55 H24         1.4582   -8.4087    0.7838 H         1 GEF         0.1510 
@<TRIPOS>BOND
     1    1    2 1    
     2    1   32 1    
     3    1   33 1    
     4    1   34 1    
     5    2    3 1    
     6    3    8 ar   
     7    3    4 ar   
     8    4    5 ar   
     9    4   35 1    
    10    5   22 ar   
    11    5    6 ar   
    12    6    7 ar   
    13    6   19 ar   
    14    7    8 ar   
    15    7   36 1    
    16    8    9 1    
    17    9   10 1    
    18   10   11 1    
    19   10   37 1    
    20   10   38 1    
    21   11   12 1    
    22   11   39 1    
    23   11   40 1    
    24   12   13 1    
    25   12   41 1    
    26   12   42 1    
    27   13   18 1    
    28   13   14 1    
    29   14   15 1    
    30   14   43 1    
    31   14   44 1    
    32   15   16 1    
    33   15   45 1    
    34   15   46 1    
    35   16   17 1    
    36   17   18 1    
    37   17   47 1    
    38   17   48 1    
    39   18   49 1    
    40   18   50 1    
    41   19   20 ar   
    42   19   23 1    
    43   20   21 ar   
    44   21   22 ar   
    45   21   51 1    
    46   23   24 1    
    47   23   52 1    
    48   24   29 ar   
    49   24   25 ar   
    50   25   26 ar   
    51   25   53 1    
    52   26   27 ar   
    53   26   54 1    
    54   27   28 ar   
    55   27   31 1    
    56   28   29 ar   
    57   28   30 1    
    58   29   55 1    
@<TRIPOS>SUBSTRUCTURE
     1 GEF         1 GROUP             0       ****    0 ROOT    
@<TRIPOS>MOLECULE
~{N}-(3-chloro-4-fluoro-phenyl)-7-methoxy-6-(3-morpholinopropoxy)quinazolin-4-amine
56   59    1
SMALL
USER_CHARGES


@<TRIPOS>ATOM
      1 C1         -0.1002   -2.1051    5.6392 C.3       1 GEF         0.1191 
      2 O1          1.1895   -1.9793    5.0516 O.3       1 GEF        -0.3509 
      3 C2          1.5743   -2.9699    4.1989 C.ar      1 GEF         0.0945 
      4 C3          2.2530   -4.0830    4.7036 C.ar      1 GEF        -0.1812 
      5 C4          2.6675   -5.1220    3.8739 C.ar      1 GEF         0.4324 
      6 C5          2.3820   -5.0193    2.5026 C.ar      1 GEF        -0.2840 
      7 C6          1.7000   -3.9033    1.9874 C.ar      1 GEF        -0.1137 
      8 C7          1.2972   -2.8797    2.8394 C.ar      1 GEF         0.0889 
      9 O2          0.6330   -1.7950    2.3306 O.3       1 GEF        -0.3429 
     10 C8          1.3179   -1.0276    1.3495 C.3       1 GEF         0.1314 
     11 C9          0.8517    0.4200    1.4459 C.3       1 GEF        -0.0920 
     12 C10         1.1265    1.0393    2.8099 C.3       1 GEF         0.1804 
     13 N1          2.5492    1.0487    3.1440 N.4       1 GEF        -0.7380 
     14 C11         3.2453    2.1290    2.4314 C.3       1 GEF         0.1371 
     15 C12         4.7249    2.1260    2.8050 C.3       1 GEF         0.1278 
     16 O3          4.8817    2.2782    4.2162 O.3       1 GEF        -0.4168 
     17 C13         4.2352    1.2145    4.9163 C.3       1 GEF         0.1278 
     18 C14         2.7439    1.1944    4.5933 C.3       1 GEF         0.1371 
     19 C15         2.8117   -6.0765    1.7055 C.ar      1 GEF         0.6900 
     20 N2          3.4661   -7.1548    2.1764 N.ar      1 GEF        -0.7511 
     21 C16         3.6829   -7.1434    3.5014 C.ar      1 GEF         0.6669 
     22 N3          3.3190   -6.1849    4.3773 N.ar      1 GEF        -0.7040 
     23 N4          2.5593   -6.0433    0.3114 N.pl3     1 GEF        -0.7138 
     24 C17         2.3463   -7.0562   -0.6370 C.ar      1 GEF         0.1134 
     25 C18         2.7268   -6.8592   -1.9645 C.ar      1 GEF        -0.0772 
     26 C19         2.5150   -7.8652   -2.9072 C.ar      1 GEF        -0.1507 
     27 C20         1.9227   -9.0681   -2.5226 C.ar      1 GEF         0.1283 
     28 C21         1.5422   -9.2650   -1.1951 C.ar      1 GEF        -0.0091 
     29 C22         1.7539   -8.2590   -0.2523 C.ar      1 GEF        -0.1434 
     30 Cl1         0.8111  -10.7475   -0.7142 Cl        1 GEF        -0.0648 
     31 F1          1.7259  -10.0257   -3.4400 F         1 GEF        -0.1244 
     32 H1         -0.2866   -1.2469    6.3016 H         1 GEF         0.0460 
     33 H2         -0.1478   -3.0361    6.2231 H         1 GEF         0.0460 
     34 H3         -0.8632   -2.1296    4.8472 H         1 GEF         0.0460 
     35 H4          2.4609   -4.1359    5.7713 H         1 GEF         0.1705 
     36 H5          1.4750   -3.8159    0.9270 H         1 GEF         0.1460 
     37 H6          2.4014   -1.0834    1.5310 H         1 GEF         0.0505 
     38 H7          1.0927   -1.4262    0.3493 H         1 GEF         0.0505 
     39 H8          1.3752    1.0248    0.6908 H         1 GEF         0.0612 
     40 H9         -0.2326    0.4687    1.2673 H         1 GEF         0.0612 
     41 H10         0.7698    2.0798    2.8187 H         1 GEF         0.0340 
     42 H11         0.6002    0.4646    3.5863 H         1 GEF         0.0340 
     43 H12         3.1440    1.9774    1.3466 H         1 GEF         0.0402 
     44 H13         2.8022    3.0967    2.7094 H         1 GEF         0.0402 
     45 H14         5.1795    1.1737    2.4945 H         1 GEF         0.0539 
     46 H15         5.2333    2.9582    2.2960 H         1 GEF         0.0539 
     47 H16         4.6798    0.2543    4.6159 H         1 GEF         0.0539 
     48 H17         4.3653    1.3559    5.9994 H         1 GEF         0.0539 
     49 H18         2.2862    2.1356    4.9319 H         1 GEF         0.0402 
     50 H19         2.2709    0.3486    5.1137 H         1 GEF         0.0402 
     51 H20         4.2073   -7.9970    3.9134 H         1 GEF         0.0564 
     52 H21         2.5021   -5.0788   -0.2144 H         1 GEF         0.4246 
     53 H22         3.1891   -5.9256   -2.2749 H         1 GEF         0.1696 
     54 H23         2.8112   -7.7123   -3.9408 H         1 GEF         0.1585 
     55 H24         1.4582   -8.4087    0.7838 H         1 GEF         0.1510 
     56 H56         2.9709    0.0842    2.8248 H         1 GEF         0.0000 
@<TRIPOS>BOND
     1    1    2 1    
     2    1   32 1    
     3    1   33 1    
     4    1   34 1    
     5    2    3 1    
     6    3    8 ar   
     7    3    4 ar   
     8    4    5 ar   
     9    4   35 1    
    10    5   22 ar   
    11    5    6 ar   
    12    6    7 ar   
    13    6   19 ar   
    14    7    8 ar   
    15    7   36 1    
    16    8    9 1    
    17    9   10 1    
    18   10   11 1    
    19   10   37 1    
    20   10   38 1    
    21   11   12 1    
    22   11   39 1    
    23   11   40 1    
    24   12   13 1    
    25   12   41 1    
    26   12   42 1    
    27   13   18 1    
    28   13   14 1    
    29   13   56 1    
    30   14   15 1    
    31   14   43 1    
    32   14   44 1    
    33   15   16 1    
    34   15   45 1    
    35   15   46 1    
    36   16   17 1    
    37   17   18 1    
    38   17   47 1    
    39   17   48 1    
    40   18   49 1    
    41   18   50 1    
    42   19   20 ar   
    43   19   23 1    
    44   20   21 ar   
    45   21   22 ar   
    46   21   51 1    
    47   23   24 1    
    48   23   52 1    
    49   24   29 ar   
    50   24   25 ar   
    51   25   26 ar   
    52   25   53 1    
    53   26   27 ar   
    54   26   54 1    
    55   27   28 ar   
    56   27   31 1    
    57   28   29 ar   
    58   28   30 1    
    59   29   55 1    
@<TRIPOS>SUBSTRUCTURE
     1 GEF         1 GROUP             0       ****    0 ROOT    
