@<TRIPOS>MOLECULE
~{N}-(2-chloro-6-methyl-phenyl)-2-[[6-[4-(2-hydroxyethyl)piperazin-1-yl]-2-methyl-1,6-dihydropyrimidin-4-yl]amino]thiazole-5-carboxamide
   61    64     1     0     0
SMALL
USER_CHARGES

@<TRIPOS>ATOM
      1 C1         46.6081   82.3021   39.1097 C.ar      1 1N1         0.4442
      2 C2         46.7356   81.8409   40.4030 C.ar      1 1N1        -0.2924
      3 C3         47.5392   82.3264   41.5143 C.2       1 1N1         0.7239
      4 N6         39.0164   75.1495   36.5608 N.3       1 1N1        -0.7383
      5 C7         51.2037   85.1639   43.8133 C.ar      1 1N1        -0.1290
      6 C8         51.6600   84.5930   42.6284 C.ar      1 1N1        -0.1184
      7 C9         50.7710   83.9615   41.7404 C.ar      1 1N1        -0.0976
      8 C10        51.3364   83.3556   40.4815 C.3       1 1N1        -0.0578
      9 C11        43.5821   78.6690   38.8005 C.2       1 1N1         0.3762
     10 C12        42.7759   78.0402   37.9176 C.2       1 1N1        -0.3246
     11 C13        41.9360   76.8305   38.2356 C.3       1 1N1         0.5352
     12 C14        43.1367   77.0504   40.3552 C.2       1 1N1         0.6511
     13 C15        43.2675   76.5157   41.7609 C.3       1 1N1        -0.1387
     14 C16        39.6322   76.1506   38.7770 C.3       1 1N1         0.1708
     15 C19        40.0080   77.4508   36.8135 C.3       1 1N1         0.1708
     16 C20        38.9713   73.9001   35.7651 C.3       1 1N1         0.1672
     17 C21        38.2907   74.0221   34.3885 C.3       1 1N1         0.1303
     18 N          44.3017   79.7690   38.3511 N.pl3     1 1N1        -0.7234
     19 C          45.1857   80.5947   38.9617 C.ar      1 1N1         0.7160
     20 N1         45.7389   81.5920   38.2993 N.ar      1 1N1        -0.6624
     21 S          45.7040   80.4864   40.6040 S.3       1 1N1        -0.1925
     22 N2         48.5284   83.2330   41.1508 N.am      1 1N1        -0.4866
     23 C4         49.3956   83.8904   42.0642 C.ar      1 1N1         0.0589
     24 C5         48.9403   84.5221   43.2429 C.ar      1 1N1         0.0256
     25 C6         49.8460   85.1383   44.1142 C.ar      1 1N1        -0.1182
     26 CL         47.2597   84.7502   43.6097 Cl        1 1N1        -0.0751
     27 O          47.3974   81.9200   42.6692 O.2       1 1N1        -0.5534
     28 N3         42.4958   76.2668   39.4393 N.pl3     1 1N1        -0.8616
     29 N4         43.6537   78.2107   40.0963 N.2       1 1N1        -0.6255
     30 N5         40.5014   77.1949   38.1903 N.3       1 1N1        -0.7603
     31 C17        39.5081   74.8660   37.9254 C.3       1 1N1         0.1710
     32 C18        39.8428   76.1924   35.9220 C.3       1 1N1         0.1710
     33 O1         36.9271   74.4269   34.5266 O.3       1 1N1        -0.6065
     34 H1         47.1211   83.1625   38.6937 H         1 1N1         0.0586
     35 H7         51.9038   85.6504   44.4898 H         1 1N1         0.1375
     36 H8         52.7250   84.6418   42.4009 H         1 1N1         0.1353
     37 H101       52.4280   83.4389   40.4478 H         1 1N1         0.0472
     38 H102       50.9399   83.8722   39.6016 H         1 1N1         0.0472
     39 H103       51.0911   82.2900   40.4267 H         1 1N1         0.0472
     40 H12        42.7378   78.3863   36.8895 H         1 1N1         0.1396
     41 H151       42.2753   76.2750   42.1535 H         1 1N1         0.0664
     42 H152       43.7411   77.2529   42.4154 H         1 1N1         0.0664
     43 H153       43.8757   75.6067   41.7469 H         1 1N1         0.0664
     44 H161       39.9530   75.8968   39.7937 H         1 1N1         0.0348
     45 H162       38.6291   76.5809   38.9062 H         1 1N1         0.0348
     46 H191       39.0265   77.9377   36.9024 H         1 1N1         0.0348
     47 H192       40.6320   78.1847   36.2931 H         1 1N1         0.0348
     48 H201       39.9835   73.4988   35.6286 H         1 1N1         0.0485
     49 H202       38.3990   73.1583   36.3373 H         1 1N1         0.0485
     50 H211       38.8084   74.7353   33.7404 H         1 1N1         0.0286
     51 H212       38.3007   73.0452   33.8934 H         1 1N1         0.0286
     52 HN         44.1335   79.9982   37.3740 H         1 1N1         0.4558
     53 HN2        48.8710   83.1256   40.2027 H         1 1N1         0.3134
     54 H6         49.4949   85.6297   45.0194 H         1 1N1         0.1483
     55 H171       38.8034   74.1938   38.4300 H         1 1N1         0.0399
     56 H172       40.4773   74.3522   37.8888 H         1 1N1         0.0399
     57 H181       40.8312   75.7946   35.6610 H         1 1N1         0.0399
     58 H182       39.3687   76.5181   34.9895 H         1 1N1         0.0399
     59 HO1        36.5714   74.4758   33.6139 H         1 1N1         0.4033
     60 H60        42.0794   75.3988   39.7581 H         1 1N1         0.4310
     61 H13        42.1435   76.0895   37.4550 H         1 1N1         0.0343
@<TRIPOS>BOND
     1    1    2 ar
     2    1   20 ar
     3    1   34 1
     4    2    3 1
     5    2   21 ar
     6    3   22 am
     7    3   27 2
     8    4   16 1
     9    4   31 1
    10    4   32 1
    11    5    6 ar
    12    5   25 ar
    13    5   35 1
    14    6    7 ar
    15    6   36 1
    16    7    8 1
    17    7   23 ar
    18    8   37 1
    19    8   38 1
    20    8   39 1
    21    9   10 2
    22    9   18 1
    23    9   29 1
    24   10   11 1
    25   10   40 1
    26   11   28 1
    27   11   30 1
    28   11   61 1
    29   12   13 1
    30   12   28 1
    31   12   29 2
    32   13   41 1
    33   13   42 1
    34   13   43 1
    35   14   30 1
    36   14   31 1
    37   14   44 1
    38   14   45 1
    39   15   30 1
    40   15   32 1
    41   15   46 1
    42   15   47 1
    43   16   17 1
    44   16   48 1
    45   16   49 1
    46   17   33 1
    47   17   50 1
    48   17   51 1
    49   18   19 1
    50   18   52 1
    51   19   20 ar
    52   19   21 ar
    53   22   23 1
    54   22   53 1
    55   23   24 ar
    56   24   25 ar
    57   24   26 1
    58   25   54 1
    59   28   60 1
    60   31   55 1
    61   31   56 1
    62   32   57 1
    63   32   58 1
    64   33   59 1
@<TRIPOS>SUBSTRUCTURE
     1 1N1         1 GROUP   0 A     ****
@<TRIPOS>MOLECULE
~{N}-(2-chloro-6-methyl-phenyl)-2-[[6-[4-(2-hydroxyethyl)piperazin-1-yl]-2-methyl-pyrimidin-4-yl]amino]thiazole-5-carboxamide
   59    62     1     0     0
SMALL
USER_CHARGES

@<TRIPOS>ATOM
      1 C1         47.3783   81.8254   38.7926 C.ar      1 1N1         0.3962
      2 C2         46.8242   81.9848   40.0460 C.ar      1 1N1        -0.2976
      3 C3         47.2491   82.7895   41.1812 C.2       1 1N1         0.7251
      4 N6         38.9154   75.0071   36.5615 N.3       1 1N1        -0.7437
      5 C7         50.4774   85.7537   43.9300 C.ar      1 1N1        -0.1214
      6 C8         51.1254   84.6442   43.3941 C.ar      1 1N1        -0.1254
      7 C9         50.4903   83.8247   42.4438 C.ar      1 1N1        -0.0828
      8 C10        51.2475   82.6340   41.9144 C.3       1 1N1        -0.0522
      9 C11        44.1057   78.5289   38.4298 C.ar      1 1N1         0.7037
     10 C12        43.1605   77.8945   37.6395 C.ar      1 1N1        -0.4499
     11 C13        42.4523   76.8319   38.1750 C.ar      1 1N1         0.6917
     12 C14        43.6170   77.0899   40.1471 C.ar      1 1N1         0.6975
     13 C15        43.8945   76.6141   41.5391 C.3       1 1N1        -0.1358
     14 C16        40.9491   74.9378   38.0577 C.3       1 1N1         0.2013
     15 C19        40.4398   77.0100   36.8349 C.3       1 1N1         0.2013
     16 C20        38.0883   74.2100   35.6239 C.3       1 1N1         0.1711
     17 C21        36.7970   74.8990   35.1438 C.3       1 1N1         0.1288
     18 N          44.8015   79.6260   37.8719 N.pl3     1 1N1        -0.8346
     19 C          45.6420   80.4619   38.5286 C.ar      1 1N1         0.6583
     20 N1         46.7018   80.9735   37.9359 N.ar      1 1N1        -0.6459
     21 S          45.3853   81.0548   40.1319 S.3       1 1N1        -0.0514
     22 N2         48.5519   83.2654   41.0884 N.am      1 1N1        -0.4802
     23 C4         49.1676   84.1225   42.0394 C.ar      1 1N1         0.0573
     24 C5         48.5445   85.2826   42.5509 C.ar      1 1N1         0.0309
     25 C6         49.1947   86.0784   43.5012 C.ar      1 1N1        -0.1229
     26 CL         47.0503   85.9099   41.9305 Cl        1 1N1        -0.0744
     27 O          46.5373   82.9791   42.1693 O.2       1 1N1        -0.5855
     28 N3         42.7045   76.4161   39.4268 N.ar      1 1N1        -0.7655
     29 N4         44.3270   78.1328   39.6923 N.ar      1 1N1        -0.7150
     30 N5         41.5049   76.1409   37.3937 N.pl3     1 1N1        -0.7678
     31 C17        40.0188   74.1674   37.0932 C.3       1 1N1         0.1684
     32 C18        39.5002   76.2010   35.9051 C.3       1 1N1         0.1684
     33 O1         35.9355   75.1952   36.2452 O.3       1 1N1        -0.6056
     34 H1         48.2768   82.3164   38.4345 H         1 1N1         0.0418
     35 H7         50.9825   86.3792   44.6636 H         1 1N1         0.1385
     36 H8         52.1382   84.4186   43.7278 H         1 1N1         0.1358
     37 H101       52.2202   82.5225   42.4056 H         1 1N1         0.0467
     38 H102       51.4321   82.7492   40.8416 H         1 1N1         0.0467
     39 H103       50.6855   81.7121   42.0962 H         1 1N1         0.0467
     40 H12        43.0034   78.2175   36.6174 H         1 1N1         0.1532
     41 H151       42.9997   76.1618   41.9779 H         1 1N1         0.0647
     42 H152       44.2038   77.4478   42.1771 H         1 1N1         0.0647
     43 H153       44.6943   75.8680   41.5214 H         1 1N1         0.0647
     44 H161       41.7585   74.2594   38.3561 H         1 1N1         0.0516
     45 H162       40.3834   75.2204   38.9560 H         1 1N1         0.0516
     46 H191       39.8548   77.4538   37.6516 H         1 1N1         0.0516
     47 H192       40.8610   77.8285   36.2410 H         1 1N1         0.0516
     48 H201       38.6803   73.9094   34.7502 H         1 1N1         0.0480
     49 H202       37.7825   73.2926   36.1436 H         1 1N1         0.0480
     50 H211       37.0064   75.8244   34.5993 H         1 1N1         0.0296
     51 H212       36.2576   74.2245   34.4701 H         1 1N1         0.0296
     52 HN         45.1035   79.4077   36.9241 H         1 1N1         0.4578
     53 HN2        49.1737   82.6872   40.5342 H         1 1N1         0.3191
     54 H6         48.7170   86.9749   43.8912 H         1 1N1         0.1499
     55 H171       39.5970   73.3147   37.6390 H         1 1N1         0.0407
     56 H172       40.6184   73.7646   36.2654 H         1 1N1         0.0407
     57 H181       40.0619   75.9006   35.0104 H         1 1N1         0.0407
     58 H182       38.7025   76.8783   35.5819 H         1 1N1         0.0407
     59 HO1        35.1450   75.6250   35.8549 H         1 1N1         0.4030
@<TRIPOS>BOND
     1    1    2 ar
     2    1   20 ar
     3    1   34 1
     4    2    3 1
     5    2   21 ar
     6    3   22 am
     7    3   27 2
     8    4   16 1
     9    4   31 1
    10    4   32 1
    11    5    6 ar
    12    5   25 ar
    13    5   35 1
    14    6    7 ar
    15    6   36 1
    16    7    8 1
    17    7   23 ar
    18    8   37 1
    19    8   38 1
    20    8   39 1
    21    9   10 ar
    22    9   18 1
    23    9   29 ar
    24   10   11 ar
    25   10   40 1
    26   11   28 ar
    27   11   30 1
    28   12   13 1
    29   12   28 ar
    30   12   29 ar
    31   13   41 1
    32   13   42 1
    33   13   43 1
    34   14   30 1
    35   14   31 1
    36   14   44 1
    37   14   45 1
    38   15   30 1
    39   15   32 1
    40   15   46 1
    41   15   47 1
    42   16   17 1
    43   16   48 1
    44   16   49 1
    45   17   33 1
    46   17   50 1
    47   17   51 1
    48   18   19 1
    49   18   52 1
    50   19   20 ar
    51   19   21 ar
    52   22   23 1
    53   22   53 1
    54   23   24 ar
    55   24   25 ar
    56   24   26 1
    57   25   54 1
    58   31   55 1
    59   31   56 1
    60   32   57 1
    61   32   58 1
    62   33   59 1
@<TRIPOS>SUBSTRUCTURE
     1 1N1         1 GROUP   0 A     ****
@<TRIPOS>MOLECULE
~{N}-(2-chloro-6-methyl-phenyl)-2-[[4-[4-(2-hydroxyethyl)piperazin-1-yl]-2-methyl-1,2-dihydropyrimidin-6-yl]amino]thiazole-5-carboxamide
   61    64     1     0     0
SMALL
USER_CHARGES

@<TRIPOS>ATOM
      1 C1         46.1927   82.7135   39.4578 C.ar      1 1N1         0.4008
      2 C2         46.5808   81.9742   40.5555 C.ar      1 1N1        -0.2987
      3 C3         47.6328   82.2001   41.5348 C.2       1 1N1         0.7210
      4 N6         39.3172   74.9700   36.4636 N.3       1 1N1        -0.7429
      5 C7         51.8345   84.4729   43.5208 C.ar      1 1N1        -0.1196
      6 C8         51.9925   84.1888   42.1671 C.ar      1 1N1        -0.1233
      7 C9         50.9028   83.7671   41.3845 C.ar      1 1N1        -0.0817
      8 C10        51.1491   83.4663   39.9284 C.3       1 1N1        -0.0572
      9 C11        42.9700   79.2551   39.0566 C.2       1 1N1         0.3667
     10 C12        41.9177   78.8603   38.3152 C.2       1 1N1        -0.4448
     11 C13        41.1520   77.6307   38.7044 C.2       1 1N1         0.7000
     12 C14        42.8824   77.0989   40.2143 C.3       1 1N1         0.4141
     13 C15        42.8282   76.6801   41.6800 C.3       1 1N1        -0.1175
     14 C16        39.0715   76.2638   38.6170 C.3       1 1N1         0.2080
     15 C19        39.7758   77.4502   36.6182 C.3       1 1N1         0.2080
     16 C20        39.7382   73.6719   35.8850 C.3       1 1N1         0.1741
     17 C21        39.4898   73.5186   34.3725 C.3       1 1N1         0.1289
     18 N          43.6490   80.4116   38.7159 N.pl3     1 1N1        -0.7095
     19 C          44.6893   81.0827   39.2687 C.ar      1 1N1         0.6269
     20 N1         45.1309   82.2025   38.7311 N.ar      1 1N1        -0.7123
     21 S          45.5544   80.6065   40.6838 S.3       1 1N1        -0.0087
     22 N2         48.5561   83.1725   41.1683 N.am      1 1N1        -0.4801
     23 C4         49.6313   83.6132   41.9856 C.ar      1 1N1         0.0534
     24 C5         49.4756   83.9580   43.3467 C.ar      1 1N1         0.0322
     25 C6         50.5772   84.3685   44.1063 C.ar      1 1N1        -0.1219
     26 CL         47.9292   84.0834   44.1237 Cl        1 1N1        -0.0783
     27 O          47.7329   81.5408   42.5713 O.2       1 1N1        -0.5716
     28 N3         41.5795   76.8142   39.6203 N.2       1 1N1        -0.6778
     29 N4         43.3013   78.4770   40.1384 N.pl3     1 1N1        -0.7555
     30 N5         39.9274   77.3513   38.0874 N.pl3     1 1N1        -0.7375
     31 C17        39.4263   74.9177   37.9468 C.3       1 1N1         0.1482
     32 C18        40.1313   76.0995   35.9481 C.3       1 1N1         0.1482
     33 O1         38.0977   73.6319   34.0691 O.3       1 1N1        -0.6062
     34 H1         46.6428   83.6460   39.1346 H         1 1N1         0.0432
     35 H7         52.6872   84.7996   44.1131 H         1 1N1         0.1397
     36 H8         52.9819   84.2966   41.7224 H         1 1N1         0.1375
     37 H101       52.2087   83.5648   39.6689 H         1 1N1         0.0477
     38 H102       50.5898   84.1646   39.2976 H         1 1N1         0.0477
     39 H103       50.8529   82.4384   39.6952 H         1 1N1         0.0477
     40 H12        41.5658   79.4430   37.4757 H         1 1N1         0.1535
     41 H151       42.5503   75.6245   41.7753 H         1 1N1         0.0476
     42 H152       42.0886   77.2691   42.2351 H         1 1N1         0.0476
     43 H153       43.7996   76.8209   42.1670 H         1 1N1         0.0476
     44 H161       39.1541   76.1842   39.7071 H         1 1N1         0.0547
     45 H162       38.0222   76.5115   38.4103 H         1 1N1         0.0547
     46 H191       38.7358   77.7142   36.3875 H         1 1N1         0.0547
     47 H192       40.3954   78.2409   36.1874 H         1 1N1         0.0547
     48 H201       40.7992   73.4856   36.0941 H         1 1N1         0.0464
     49 H202       39.1624   72.8806   36.3823 H         1 1N1         0.0464
     50 H211       40.0407   74.2638   33.7913 H         1 1N1         0.0279
     51 H212       39.8219   72.5255   34.0514 H         1 1N1         0.0279
     52 HN         43.2728   80.8712   37.8873 H         1 1N1         0.4454
     53 HN2        48.6754   83.2851   40.1678 H         1 1N1         0.3210
     54 H6         50.4565   84.6393   45.1533 H         1 1N1         0.1504
     55 H171       38.7382   74.1553   38.3312 H         1 1N1         0.0392
     56 H172       40.4424   74.6213   38.2379 H         1 1N1         0.0392
     57 H181       41.1995   75.8950   36.0996 H         1 1N1         0.0392
     58 H182       39.9638   76.2161   34.8722 H         1 1N1         0.0392
     59 HO1        38.0285   73.5198   33.0973 H         1 1N1         0.4019
     60 H60        44.2544   78.6302   40.4642 H         1 1N1         0.4424
     61 H14        43.6295   76.4746   39.7086 H         1 1N1         0.0694
@<TRIPOS>BOND
     1    1    2 ar
     2    1   20 ar
     3    1   34 1
     4    2    3 1
     5    2   21 ar
     6    3   22 am
     7    3   27 2
     8    4   16 1
     9    4   31 1
    10    4   32 1
    11    5    6 ar
    12    5   25 ar
    13    5   35 1
    14    6    7 ar
    15    6   36 1
    16    7    8 1
    17    7   23 ar
    18    8   37 1
    19    8   38 1
    20    8   39 1
    21    9   10 2
    22    9   18 1
    23    9   29 1
    24   10   11 1
    25   10   40 1
    26   11   28 2
    27   11   30 1
    28   12   13 1
    29   12   28 1
    30   12   29 1
    31   12   61 1
    32   13   41 1
    33   13   42 1
    34   13   43 1
    35   14   30 1
    36   14   31 1
    37   14   44 1
    38   14   45 1
    39   15   30 1
    40   15   32 1
    41   15   46 1
    42   15   47 1
    43   16   17 1
    44   16   48 1
    45   16   49 1
    46   17   33 1
    47   17   50 1
    48   17   51 1
    49   18   19 1
    50   18   52 1
    51   19   20 ar
    52   19   21 ar
    53   22   23 1
    54   22   53 1
    55   23   24 ar
    56   24   25 ar
    57   24   26 1
    58   25   54 1
    59   29   60 1
    60   31   55 1
    61   31   56 1
    62   32   57 1
    63   32   58 1
    64   33   59 1
@<TRIPOS>SUBSTRUCTURE
     1 1N1         1 GROUP   0 A     ****
@<TRIPOS>MOLECULE
~{N}-(2-chloro-6-methyl-phenyl)-2-[[6-[4-(2-hydroxyethyl)piperazin-4-ium-1-yl]-2-methyl-pyrimidin-4-yl]amino]thiazole-5-carboxamide
   60    63     1     0     0
SMALL
USER_CHARGES

@<TRIPOS>ATOM
      1 C1         46.2674   82.5984   39.1274 C.ar      1 1N1         0.4331
      2 C2         46.2884   82.1865   40.4439 C.ar      1 1N1        -0.2561
      3 C3         47.2048   82.5044   41.5284 C.2       1 1N1         0.7200
      4 N6         39.5955   75.0008   36.6259 N.4       1 1N1        -0.6839
      5 C7         51.4967   84.4325   43.6792 C.ar      1 1N1        -0.1191
      6 C8         51.7793   83.7052   42.5263 C.ar      1 1N1        -0.1191
      7 C9         50.7487   83.2749   41.6716 C.ar      1 1N1        -0.0457
      8 C10        51.1270   82.4823   40.4468 C.3       1 1N1        -0.0612
      9 C11        42.8459   79.4447   38.8312 C.ar      1 1N1         0.7190
     10 C12        41.6022   79.1092   38.3216 C.ar      1 1N1        -0.4439
     11 C13        41.0711   77.8695   38.6326 C.ar      1 1N1         0.6568
     12 C14        42.9445   77.4109   39.8888 C.ar      1 1N1         0.7163
     13 C15        43.6744   76.4762   40.8028 C.3       1 1N1        -0.1411
     14 C16        39.2236   76.2772   38.7712 C.3       1 1N1         0.1684
     15 C19        39.6479   77.5244   36.6790 C.3       1 1N1         0.1684
     16 C20        40.0554   73.7115   35.9695 C.3       1 1N1         0.0938
     17 C21        39.2849   73.5177   34.6590 C.3       1 1N1         0.1202
     18 N          43.3584   80.7266   38.5289 N.pl3     1 1N1        -0.8249
     19 C          44.4638   81.2994   39.0639 C.ar      1 1N1         0.6523
     20 N1         45.2301   82.1035   38.3550 N.ar      1 1N1        -0.6319
     21 S          44.9373   81.1663   40.7209 S.3       1 1N1        -0.1476
     22 N2         48.3877   83.1088   41.1188 N.am      1 1N1        -0.4784
     23 C4         49.4041   83.5710   41.9972 C.ar      1 1N1         0.0484
     24 C5         49.1379   84.3568   43.1406 C.ar      1 1N1        -0.0075
     25 C6         50.1805   84.7670   43.9795 C.ar      1 1N1        -0.1147
     26 CL         47.5744   85.0220   43.4929 Cl        1 1N1        -0.1046
     27 O          46.9791   82.2058   42.7026 O.2       1 1N1        -0.5525
     28 N3         41.7413   77.0238   39.4292 N.ar      1 1N1        -0.7705
     29 N4         43.5176   78.5938   39.6215 N.ar      1 1N1        -0.6870
     30 N5         39.8024   77.5016   38.1582 N.pl3     1 1N1        -0.7646
     31 C17        39.7614   74.9746   38.1378 C.3       1 1N1         0.1027
     32 C18        40.2153   76.2473   36.0149 C.3       1 1N1         0.1027
     33 O1         37.9068   73.8591   34.8788 O.3       1 1N1        -0.5808
     34 H1         46.9797   83.2753   38.6680 H         1 1N1         0.0741
     35 H7         52.3053   84.7597   44.3301 H         1 1N1         0.1446
     36 H8         52.8191   83.4710   42.2977 H         1 1N1         0.1436
     37 H101       52.2039   82.2859   40.4093 H         1 1N1         0.0546
     38 H102       50.8621   83.0362   39.5405 H         1 1N1         0.0546
     39 H103       50.6206   81.5116   40.4484 H         1 1N1         0.0546
     40 H12        41.0467   79.8229   37.7244 H         1 1N1         0.1523
     41 H151       43.4253   75.4365   40.5696 H         1 1N1         0.0757
     42 H152       43.3946   76.6820   41.8401 H         1 1N1         0.0757
     43 H153       44.7565   76.6009   40.6975 H         1 1N1         0.0757
     44 H161       39.3681   76.2659   39.8587 H         1 1N1         0.0872
     45 H162       38.1371   76.3142   38.6181 H         1 1N1         0.0872
     46 H191       38.5755   77.5911   36.4554 H         1 1N1         0.0872
     47 H192       40.1055   78.4101   36.2255 H         1 1N1         0.0872
     48 H201       41.1410   73.7402   35.8339 H         1 1N1         0.1198
     49 H202       39.7931   72.9009   36.6583 H         1 1N1         0.1198
     50 H211       39.6771   74.1689   33.8722 H         1 1N1         0.0458
     51 H212       39.3502   72.4777   34.3252 H         1 1N1         0.0458
     52 HN         43.2247   80.9401   37.5424 H         1 1N1         0.4587
     53 HN2        48.6800   82.8698   40.1778 H         1 1N1         0.3094
     54 H6         49.9762   85.3768   44.8574 H         1 1N1         0.1523
     55 H171       39.1967   74.1146   38.5140 H         1 1N1         0.1106
     56 H172       40.8269   74.8235   38.3386 H         1 1N1         0.1106
     57 H181       41.2993   76.1726   36.1575 H         1 1N1         0.1106
     58 H182       39.9851   76.2463   34.9452 H         1 1N1         0.1106
     59 HO1        37.4491   73.6590   34.0337 H         1 1N1         0.4427
     60 H60        38.5820   75.0219   36.4183 H         1 1N1         0.4423
@<TRIPOS>BOND
     1    1    2 ar
     2    1   20 ar
     3    1   34 1
     4    2    3 1
     5    2   21 ar
     6    3   22 am
     7    3   27 2
     8    4   16 1
     9    4   31 1
    10    4   32 1
    11    4   60 1
    12    5    6 ar
    13    5   25 ar
    14    5   35 1
    15    6    7 ar
    16    6   36 1
    17    7    8 1
    18    7   23 ar
    19    8   37 1
    20    8   38 1
    21    8   39 1
    22    9   10 ar
    23    9   18 1
    24    9   29 ar
    25   10   11 ar
    26   10   40 1
    27   11   28 ar
    28   11   30 1
    29   12   13 1
    30   12   28 ar
    31   12   29 ar
    32   13   41 1
    33   13   42 1
    34   13   43 1
    35   14   30 1
    36   14   31 1
    37   14   44 1
    38   14   45 1
    39   15   30 1
    40   15   32 1
    41   15   46 1
    42   15   47 1
    43   16   17 1
    44   16   48 1
    45   16   49 1
    46   17   33 1
    47   17   50 1
    48   17   51 1
    49   18   19 1
    50   18   52 1
    51   19   20 ar
    52   19   21 ar
    53   22   23 1
    54   22   53 1
    55   23   24 ar
    56   24   25 ar
    57   24   26 1
    58   25   54 1
    59   31   55 1
    60   31   56 1
    61   32   57 1
    62   32   58 1
    63   33   59 1
@<TRIPOS>SUBSTRUCTURE
     1 1N1         1 GROUP   0 A     ****
@<TRIPOS>MOLECULE
~{N}-(2-chloro-6-methyl-phenyl)-2-[[4-[4-(2-hydroxyethyl)piperazin-4-ium-1-yl]-2-methyl-1,2-dihydropyrimidin-6-yl]amino]thiazole-5-carboxamide
   62    65     1     0     0
SMALL
USER_CHARGES

@<TRIPOS>ATOM
      1 C1         46.2372   82.7504   39.4611 C.ar      1 1N1         0.4062
      2 C2         46.6118   81.9956   40.5529 C.ar      1 1N1        -0.2853
      3 C3         47.6455   82.2120   41.5537 C.2       1 1N1         0.7154
      4 N6         39.4273   74.9031   36.4841 N.4       1 1N1        -0.6802
      5 C7         51.7888   84.4861   43.6569 C.ar      1 1N1        -0.1178
      6 C8         51.9734   84.2298   42.3011 C.ar      1 1N1        -0.1198
      7 C9         50.9019   83.8131   41.4911 C.ar      1 1N1        -0.0475
      8 C10        51.1768   83.5429   40.0342 C.3       1 1N1        -0.0611
      9 C11        43.0397   79.2828   38.9541 C.2       1 1N1         0.4586
     10 C12        41.9995   78.8964   38.1924 C.2       1 1N1        -0.5332
     11 C13        41.2377   77.6595   38.5558 C.2       1 1N1         0.7155
     12 C14        42.9436   77.1075   40.0807 C.3       1 1N1         0.4351
     13 C15        42.8630   76.6725   41.5405 C.3       1 1N1        -0.1163
     14 C16        39.1081   76.3758   38.5030 C.3       1 1N1         0.1973
     15 C19        39.9566   77.3726   36.4320 C.3       1 1N1         0.1973
     16 C20        39.7072   73.5099   35.9497 C.3       1 1N1         0.0893
     17 C21        39.0484   73.3628   34.5739 C.3       1 1N1         0.1197
     18 N          43.7189   80.4469   38.6414 N.pl3     1 1N1        -0.7396
     19 C          44.7469   81.1144   39.2212 C.ar      1 1N1         0.6124
     20 N1         45.1906   82.2450   38.7088 N.ar      1 1N1        -0.7198
     21 S          45.5924   80.6195   40.6416 S.3       1 1N1         0.0301
     22 N2         48.5653   83.2000   41.2220 N.am      1 1N1        -0.4628
     23 C4         49.6216   83.6353   42.0664 C.ar      1 1N1         0.0448
     24 C5         49.4385   83.9523   43.4309 C.ar      1 1N1        -0.0035
     25 C6         50.5224   84.3586   44.2178 C.ar      1 1N1        -0.1147
     26 CL         47.8775   84.0479   44.1825 Cl        1 1N1        -0.0998
     27 O          47.7350   81.5333   42.5786 O.2       1 1N1        -0.5840
     28 N3         41.6518   76.8226   39.4580 N.2       1 1N1        -0.7086
     29 N4         43.3584   78.4881   40.0277 N.pl3     1 1N1        -0.7709
     30 N5         40.0244   77.3875   37.9152 N.pl3     1 1N1        -0.7562
     31 C17        39.4404   74.9546   38.0060 C.3       1 1N1         0.0758
     32 C18        40.3186   75.9763   35.8760 C.3       1 1N1         0.0758
     33 O1         37.7400   73.9543   34.6230 O.3       1 1N1        -0.5803
     34 H1         46.6865   83.6908   39.1606 H         1 1N1         0.0547
     35 H7         52.6277   84.8092   44.2706 H         1 1N1         0.1454
     36 H8         52.9694   84.3556   41.8762 H         1 1N1         0.1431
     37 H101       52.2398   83.6569   39.7955 H         1 1N1         0.0548
     38 H102       50.6216   84.2475   39.4070 H         1 1N1         0.0548
     39 H103       50.8953   82.5168   39.7762 H         1 1N1         0.0548
     40 H12        41.6510   79.4855   37.3550 H         1 1N1         0.1498
     41 H151       42.5872   75.6151   41.6186 H         1 1N1         0.0550
     42 H152       42.1100   77.2528   42.0868 H         1 1N1         0.0550
     43 H153       43.8241   76.8120   42.0477 H         1 1N1         0.0550
     44 H161       39.1331   76.4128   39.5983 H         1 1N1         0.0911
     45 H162       38.0809   76.6299   38.2130 H         1 1N1         0.0911
     46 H191       38.9367   77.6352   36.1252 H         1 1N1         0.0911
     47 H192       40.6181   78.1209   35.9862 H         1 1N1         0.0911
     48 H201       40.7878   73.3373   35.9335 H         1 1N1         0.1189
     49 H202       39.2341   72.8090   36.6464 H         1 1N1         0.1189
     50 H211       39.6282   73.8790   33.8031 H         1 1N1         0.0453
     51 H212       38.9569   72.3067   34.3027 H         1 1N1         0.0453
     52 HN         43.3522   80.9185   37.8152 H         1 1N1         0.4710
     53 HN2        48.7007   83.3334   40.2261 H         1 1N1         0.3229
     54 H6         50.3806   84.6080   45.2675 H         1 1N1         0.1532
     55 H171       38.6892   74.2427   38.3641 H         1 1N1         0.1090
     56 H172       40.4361   74.6308   38.3275 H         1 1N1         0.1090
     57 H181       41.3536   75.7119   36.1211 H         1 1N1         0.1090
     58 H182       40.1786   75.9532   34.7912 H         1 1N1         0.1090
     59 HO1        37.3406   73.7805   33.7431 H         1 1N1         0.4409
     60 H60        44.3048   78.6414   40.3724 H         1 1N1         0.4744
     61 H61        38.4588   75.0851   36.1681 H         1 1N1         0.4433
     62 H14        43.7026   76.4917   39.5824 H         1 1N1         0.0713
@<TRIPOS>BOND
     1    1    2 ar
     2    1   20 ar
     3    1   34 1
     4    2    3 1
     5    2   21 ar
     6    3   22 am
     7    3   27 2
     8    4   16 1
     9    4   31 1
    10    4   32 1
    11    4   61 1
    12    5    6 ar
    13    5   25 ar
    14    5   35 1
    15    6    7 ar
    16    6   36 1
    17    7    8 1
    18    7   23 ar
    19    8   37 1
    20    8   38 1
    21    8   39 1
    22    9   10 2
    23    9   18 1
    24    9   29 1
    25   10   11 1
    26   10   40 1
    27   11   28 2
    28   11   30 1
    29   12   13 1
    30   12   28 1
    31   12   29 1
    32   12   62 1
    33   13   41 1
    34   13   42 1
    35   13   43 1
    36   14   30 1
    37   14   31 1
    38   14   44 1
    39   14   45 1
    40   15   30 1
    41   15   32 1
    42   15   46 1
    43   15   47 1
    44   16   17 1
    45   16   48 1
    46   16   49 1
    47   17   33 1
    48   17   50 1
    49   17   51 1
    50   18   19 1
    51   18   52 1
    52   19   20 ar
    53   19   21 ar
    54   22   23 1
    55   22   53 1
    56   23   24 ar
    57   24   25 ar
    58   24   26 1
    59   25   54 1
    60   29   60 1
    61   31   55 1
    62   31   56 1
    63   32   57 1
    64   32   58 1
    65   33   59 1
@<TRIPOS>SUBSTRUCTURE
     1 1N1         1 GROUP   0 A     ****
@<TRIPOS>MOLECULE
~{N}-(2-chloro-6-methyl-phenyl)-2-[[4-[4-(2-hydroxyethyl)piperazin-1-yl]-2-methyl-1,2-dihydropyrimidin-6-yl]amino]thiazol-3-ium-5-carboxamide
   62    65     1     0     0
SMALL
USER_CHARGES

@<TRIPOS>ATOM
      1 C1         46.2074   82.7311   39.4271 C.ar      1 1N1        -0.0353
      2 C2         46.5786   81.9718   40.5129 C.ar      1 1N1        -0.1858
      3 C3         47.6218   82.1955   41.5044 C.2       1 1N1         0.7087
      4 N6         39.3096   74.9575   36.4824 N.3       1 1N1        -0.7398
      5 C7         51.7898   84.4567   43.5661 C.ar      1 1N1        -0.1027
      6 C8         51.9857   84.1417   42.2242 C.ar      1 1N1        -0.1159
      7 C9         50.9153   83.7174   41.4167 C.ar      1 1N1        -0.0397
      8 C10        51.2032   83.3833   39.9757 C.3       1 1N1        -0.0615
      9 C11        42.9997   79.2532   38.9648 C.2       1 1N1         0.2645
     10 C12        41.9408   78.8856   38.2327 C.2       1 1N1        -0.3081
     11 C13        41.1940   77.6590   38.6436 C.2       1 1N1         0.6997
     12 C14        42.9463   77.1387   40.1497 C.3       1 1N1         0.4056
     13 C15        42.8808   76.7676   41.6283 C.3       1 1N1        -0.1295
     14 C16        39.1106   76.2929   38.6136 C.3       1 1N1         0.2055
     15 C19        39.7892   77.4373   36.5801 C.3       1 1N1         0.2055
     16 C20        39.7095   73.6454   35.9205 C.3       1 1N1         0.1683
     17 C21        39.4295   73.4650   34.4166 C.3       1 1N1         0.1323
     18 N          43.6618   80.4115   38.6371 N.pl3     1 1N1        -0.5841
     19 C          44.6787   81.0475   39.2152 C.ar      1 1N1         0.2593
     20 N1         45.1543   82.1946   38.7158 N.ar      1 1N1        -0.2049
     21 S          45.5611   80.5829   40.6366 S.3       1 1N1         0.2251
     22 N2         48.5665   83.1486   41.1409 N.am      1 1N1        -0.4416
     23 C4         49.6239   83.5924   41.9810 C.ar      1 1N1         0.0162
     24 C5         49.4311   83.9682   43.3293 C.ar      1 1N1         0.0032
     25 C6         50.5138   84.3809   44.1142 C.ar      1 1N1        -0.1087
     26 CL         47.8629   84.1279   44.0549 Cl        1 1N1        -0.0954
     27 O          47.6951   81.5489   42.5509 O.2       1 1N1        -0.5546
     28 N3         41.6396   76.8577   39.5623 N.2       1 1N1        -0.6618
     29 N4         43.3973   78.5038   40.0307 N.pl3     1 1N1        -0.7454
     30 N5         39.9629   77.3661   38.0489 N.pl3     1 1N1        -0.7321
     31 C17        39.4470   74.9325   37.9637 C.3       1 1N1         0.1483
     32 C18        40.1215   76.0707   35.9299 C.3       1 1N1         0.1483
     33 O1         38.0325   73.5836   34.1389 O.3       1 1N1        -0.6030
     34 H1         46.6521   83.6688   39.1122 H         1 1N1         0.2226
     35 H7         52.6282   84.7850   44.1777 H         1 1N1         0.1548
     36 H8         52.9898   84.2275   41.8085 H         1 1N1         0.1518
     37 H101       52.2717   83.4624   39.7480 H         1 1N1         0.0556
     38 H102       50.6738   84.0758   39.3135 H         1 1N1         0.0556
     39 H103       50.9003   82.3548   39.7541 H         1 1N1         0.0556
     40 H12        41.5738   79.4822   37.4119 H         1 1N1         0.1657
     41 H151       42.5805   75.7220   41.7565 H         1 1N1         0.0580
     42 H152       42.1526   77.3906   42.1608 H         1 1N1         0.0580
     43 H153       43.8540   76.9050   42.1121 H         1 1N1         0.0580
     44 H161       39.2121   76.2337   39.7035 H         1 1N1         0.0624
     45 H162       38.0591   76.5424   38.4204 H         1 1N1         0.0624
     46 H191       38.7485   77.7076   36.3603 H         1 1N1         0.0624
     47 H192       40.4115   78.2135   36.1264 H         1 1N1         0.0624
     48 H201       40.7731   73.4550   36.1120 H         1 1N1         0.0527
     49 H202       39.1380   72.8682   36.4443 H         1 1N1         0.0527
     50 H211       39.9743   74.1945   33.8101 H         1 1N1         0.0298
     51 H212       39.7474   72.4633   34.1082 H         1 1N1         0.0298
     52 HN         43.3270   80.9143   37.8246 H         1 1N1         0.4833
     53 HN2        48.7210   83.2347   40.1426 H         1 1N1         0.3213
     54 H6         50.3644   84.6755   45.1510 H         1 1N1         0.1627
     55 H171       38.7632   74.1809   38.3760 H         1 1N1         0.0476
     56 H172       40.4673   74.6375   38.2413 H         1 1N1         0.0476
     57 H181       41.1908   75.8612   36.0657 H         1 1N1         0.0476
     58 H182       39.9350   76.1679   34.8552 H         1 1N1         0.0476
     59 HO1        37.9427   73.4528   33.1711 H         1 1N1         0.4094
     60 H60        44.3735   78.6228   40.2904 H         1 1N1         0.3923
     61 H61        44.7416   82.6076   37.8825 H         1 1N1         0.3478
     62 H14        43.6804   76.4820   39.6659 H         1 1N1         0.1017
@<TRIPOS>BOND
     1    1    2 ar
     2    1   20 ar
     3    1   34 1
     4    2    3 1
     5    2   21 ar
     6    3   22 am
     7    3   27 2
     8    4   16 1
     9    4   31 1
    10    4   32 1
    11    5    6 ar
    12    5   25 ar
    13    5   35 1
    14    6    7 ar
    15    6   36 1
    16    7    8 1
    17    7   23 ar
    18    8   37 1
    19    8   38 1
    20    8   39 1
    21    9   10 2
    22    9   18 1
    23    9   29 1
    24   10   11 1
    25   10   40 1
    26   11   28 2
    27   11   30 1
    28   12   13 1
    29   12   28 1
    30   12   29 1
    31   12   62 1
    32   13   41 1
    33   13   42 1
    34   13   43 1
    35   14   30 1
    36   14   31 1
    37   14   44 1
    38   14   45 1
    39   15   30 1
    40   15   32 1
    41   15   46 1
    42   15   47 1
    43   16   17 1
    44   16   48 1
    45   16   49 1
    46   17   33 1
    47   17   50 1
    48   17   51 1
    49   18   19 1
    50   18   52 1
    51   19   20 ar
    52   19   21 ar
    53   20   61 1
    54   22   23 1
    55   22   53 1
    56   23   24 ar
    57   24   25 ar
    58   24   26 1
    59   25   54 1
    60   29   60 1
    61   31   55 1
    62   31   56 1
    63   32   57 1
    64   32   58 1
    65   33   59 1
@<TRIPOS>SUBSTRUCTURE
     1 1N1         1 GROUP   0 A     ****
