1N1
                    3D
 Structure written by MMmdl.
 60 63  0  0  1  0            999 V2000
   46.6110   82.6200   38.8410 C   0  0  0  0  0  0
   46.7750   82.0670   40.0440 C   0  0  0  0  0  0
   47.6870   82.4940   41.1480 C   0  0  0  0  0  0
   39.1540   74.8480   36.4620 N   0  0  0  0  0  0
   51.3280   84.7110   43.8460 C   0  0  0  0  0  0
   51.6490   83.9220   42.7330 C   0  0  0  0  0  0
   50.6600   83.5350   41.8220 C   0  0  0  0  0  0
   51.0540   82.7460   40.6060 C   0  0  0  0  0  0
   43.3450   79.0450   38.8240 C   0  0  0  0  0  0
   42.2600   78.4660   38.1410 C   0  0  0  0  0  0
   41.6410   77.3640   38.7640 C   0  0  0  0  0  0
   43.1380   77.5250   40.5610 C   0  0  0  0  0  0
   43.6000   77.0970   41.9190 C   0  0  0  0  0  0
   39.8200   75.5660   38.8090 C   0  0  0  0  0  0
   39.9050   77.1490   36.8840 C   0  0  0  0  0  0
   39.2210   73.7370   35.5030 C   0  0  0  0  0  0
   38.3550   73.8890   34.2270 C   0  0  0  0  0  0
   43.9770   80.1180   38.2570 N   0  0  0  0  0  0
   45.0120   80.8680   38.7420 C   0  0  0  0  0  0
   45.5400   81.9390   38.1020 N   0  0  0  0  0  0
   45.8120   80.6770   40.2960 S   0  0  0  0  0  0
   48.3930   83.6260   41.1040 N   0  0  0  0  0  0
   49.3330   83.9150   42.0370 C   0  0  0  0  0  0
   49.0210   84.6530   43.2010 C   0  0  0  0  0  0
   50.0050   85.0710   44.1070 C   0  0  0  0  0  0
   47.3940   85.0560   43.5890 Cl  0  0  0  0  0  0
   47.7260   81.7050   42.0920 O   0  0  0  0  0  0
   42.0970   76.9050   39.9750 N   0  3  0  0  0  0
   43.7640   78.5580   40.0120 N   0  0  0  0  0  0
   40.4900   76.7170   38.1650 N   0  0  0  0  0  0
   39.6220   74.4100   37.7990 C   0  0  0  0  0  0
   39.9110   75.9790   35.8960 C   0  0  0  0  0  0
   37.4960   75.0150   34.2610 O   0  0  0  0  0  0
   47.1860   83.4530   38.4630 H   0  0  0  0  0  0
   52.1130   85.0440   44.5090 H   0  0  0  0  0  0
   52.6710   83.6090   42.5770 H   0  0  0  0  0  0
   52.1366   82.5526   40.6293 H   0  0  0  0  0  0
   50.8031   83.3181   39.7006 H   0  0  0  0  0  0
   50.5108   81.7895   40.5977 H   0  0  0  0  0  0
   41.9190   78.8460   37.1890 H   0  0  0  0  0  0
   43.0021   76.2372   42.2556 H   0  0  0  0  0  0
   43.4765   77.9293   42.6275 H   0  0  0  0  0  0
   44.6608   76.8100   41.8718 H   0  0  0  0  0  0
   40.4359   75.2044   39.6456 H   0  0  0  0  0  0
   38.8356   75.8792   39.1870 H   0  0  0  0  0  0
   38.8701   77.4837   37.0479 H   0  0  0  0  0  0
   40.4977   77.9788   36.4715 H   0  0  0  0  0  0
   40.2576   73.6141   35.1561 H   0  0  0  0  0  0
   38.8856   72.8102   35.9915 H   0  0  0  0  0  0
   39.0101   73.9996   33.3503 H   0  0  0  0  0  0
   37.7245   72.9962   34.1032 H   0  0  0  0  0  0
   43.6592   80.4849   37.2699 H   0  0  0  0  0  0
   48.2185   84.3520   40.2962 H   0  0  0  0  0  0
   49.7480   85.6530   44.9790 H   0  0  0  0  0  0
   38.8860   73.7198   38.2371 H   0  0  0  0  0  0
   40.5905   73.8981   37.6989 H   0  0  0  0  0  0
   40.9486   75.6672   35.7059 H   0  0  0  0  0  0
   39.4447   76.2964   34.9517 H   0  0  0  0  0  0
   36.8323   75.2264   33.4096 H   0  0  0  0  0  0
   41.6125   76.0412   40.4536 H   0  0  0  0  0  0
  1  2  2  0  0  0
  1 20  1  0  0  0
  1 34  1  0  0  0
  2  3  1  0  0  0
  2 21  1  0  0  0
  3 22  1  0  0  0
  3 27  2  0  0  0
  4 16  1  0  0  0
  4 31  1  0  0  0
  4 32  1  0  0  0
  5  6  2  0  0  0
  5 25  1  0  0  0
  5 35  1  0  0  0
  6  7  1  0  0  0
  6 36  1  0  0  0
  7  8  1  0  0  0
  7 23  2  0  0  0
  8 37  1  0  0  0
  8 38  1  0  0  0
  8 39  1  0  0  0
  9 10  2  0  0  0
  9 18  1  0  0  0
  9 29  1  0  0  0
 10 11  1  0  0  0
 10 40  1  0  0  0
 11 28  2  0  0  0
 11 30  1  0  0  0
 12 13  1  0  0  0
 12 28  1  0  0  0
 12 29  2  0  0  0
 13 41  1  0  0  0
 13 42  1  0  0  0
 13 43  1  0  0  0
 14 30  1  0  0  0
 14 31  1  0  0  0
 14 44  1  0  0  0
 14 45  1  0  0  0
 15 30  1  0  0  0
 15 32  1  0  0  0
 15 46  1  0  0  0
 15 47  1  0  0  0
 16 17  1  0  0  0
 16 48  1  0  0  0
 16 49  1  0  0  0
 17 33  1  0  0  0
 17 50  1  0  0  0
 17 51  1  0  0  0
 18 19  1  0  0  0
 18 52  1  0  0  0
 19 20  2  0  0  0
 19 21  1  0  0  0
 22 23  1  0  0  0
 22 53  1  0  0  0
 23 24  1  0  0  0
 24 25  2  0  0  0
 24 26  1  0  0  0
 25 54  1  0  0  0
 28 60  1  0  0  0
 31 55  1  0  0  0
 31 56  1  0  0  0
 32 57  1  0  0  0
 32 58  1  0  0  0
 33 59  1  0  0  0
M  CHG  1  28   1
M  END
> <s_m_source_file>
C:\GitHub\mcce-charges\epik_inhibitors\output-new\Dasatinib\Dasatinib-input.mol2

> <i_m_source_file_index>
1

> <r_lp_tautomer_probability>
0.999336275638084

> <r_epik_Ionization_Penalty>
  2.6037

> <r_epik_Ionization_Penalty_Charging>
  2.4083

> <r_epik_Ionization_Penalty_Neutral>
  0.1954

> <r_epik_State_Penalty>
  0.2382

> <r_epik_Charging_Adjusted_Penalty>
2.64654101810788

> <i_epik_Tot_Q>
1

> <i_epik_Tot_abs_Q>
1

$$$$
1N1
                    3D
 Structure written by MMmdl.
 59 62  0  0  1  0            999 V2000
   46.6110   82.6200   38.8410 C   0  0  0  0  0  0
   46.7750   82.0670   40.0440 C   0  0  0  0  0  0
   47.6870   82.4940   41.1480 C   0  0  0  0  0  0
   39.1540   74.8480   36.4620 N   0  0  0  0  0  0
   51.3280   84.7110   43.8460 C   0  0  0  0  0  0
   51.6490   83.9220   42.7330 C   0  0  0  0  0  0
   50.6600   83.5350   41.8220 C   0  0  0  0  0  0
   51.0540   82.7460   40.6060 C   0  0  0  0  0  0
   43.3450   79.0450   38.8240 C   0  0  0  0  0  0
   42.2600   78.4660   38.1410 C   0  0  0  0  0  0
   41.6410   77.3640   38.7640 C   0  0  0  0  0  0
   43.1380   77.5250   40.5610 C   0  0  0  0  0  0
   43.6000   77.0970   41.9190 C   0  0  0  0  0  0
   39.8200   75.5660   38.8090 C   0  0  0  0  0  0
   39.9050   77.1490   36.8840 C   0  0  0  0  0  0
   39.2210   73.7370   35.5030 C   0  0  0  0  0  0
   38.3550   73.8890   34.2270 C   0  0  0  0  0  0
   43.9770   80.1180   38.2570 N   0  0  0  0  0  0
   45.0120   80.8680   38.7420 C   0  0  0  0  0  0
   45.5400   81.9390   38.1020 N   0  0  0  0  0  0
   45.8120   80.6770   40.2960 S   0  0  0  0  0  0
   48.3930   83.6260   41.1040 N   0  0  0  0  0  0
   49.3330   83.9150   42.0370 C   0  0  0  0  0  0
   49.0210   84.6530   43.2010 C   0  0  0  0  0  0
   50.0050   85.0710   44.1070 C   0  0  0  0  0  0
   47.3940   85.0560   43.5890 Cl  0  0  0  0  0  0
   47.7260   81.7050   42.0920 O   0  0  0  0  0  0
   42.0970   76.9050   39.9750 N   0  0  0  0  0  0
   43.7640   78.5580   40.0120 N   0  0  0  0  0  0
   40.4900   76.7170   38.1650 N   0  0  0  0  0  0
   39.6220   74.4100   37.7990 C   0  0  0  0  0  0
   39.9110   75.9790   35.8960 C   0  0  0  0  0  0
   37.4960   75.0150   34.2610 O   0  0  0  0  0  0
   47.1860   83.4530   38.4630 H   0  0  0  0  0  0
   52.1130   85.0440   44.5090 H   0  0  0  0  0  0
   52.6710   83.6090   42.5770 H   0  0  0  0  0  0
   52.1366   82.5526   40.6293 H   0  0  0  0  0  0
   50.8031   83.3181   39.7006 H   0  0  0  0  0  0
   50.5108   81.7895   40.5977 H   0  0  0  0  0  0
   41.9190   78.8460   37.1890 H   0  0  0  0  0  0
   43.0021   76.2372   42.2556 H   0  0  0  0  0  0
   43.4765   77.9293   42.6275 H   0  0  0  0  0  0
   44.6608   76.8100   41.8718 H   0  0  0  0  0  0
   40.4359   75.2044   39.6456 H   0  0  0  0  0  0
   38.8356   75.8792   39.1870 H   0  0  0  0  0  0
   38.8701   77.4837   37.0479 H   0  0  0  0  0  0
   40.4977   77.9788   36.4715 H   0  0  0  0  0  0
   40.2576   73.6141   35.1561 H   0  0  0  0  0  0
   38.8856   72.8102   35.9915 H   0  0  0  0  0  0
   39.0101   73.9996   33.3503 H   0  0  0  0  0  0
   37.7245   72.9962   34.1032 H   0  0  0  0  0  0
   43.6592   80.4849   37.2699 H   0  0  0  0  0  0
   48.2185   84.3520   40.2962 H   0  0  0  0  0  0
   49.7480   85.6530   44.9790 H   0  0  0  0  0  0
   38.8860   73.7198   38.2371 H   0  0  0  0  0  0
   40.5905   73.8981   37.6989 H   0  0  0  0  0  0
   40.9486   75.6672   35.7059 H   0  0  0  0  0  0
   39.4447   76.2964   34.9517 H   0  0  0  0  0  0
   36.8323   75.2264   33.4096 H   0  0  0  0  0  0
  1  2  2  0  0  0
  1 20  1  0  0  0
  1 34  1  0  0  0
  2  3  1  0  0  0
  2 21  1  0  0  0
  3 22  1  0  0  0
  3 27  2  0  0  0
  4 16  1  0  0  0
  4 31  1  0  0  0
  4 32  1  0  0  0
  5  6  2  0  0  0
  5 25  1  0  0  0
  5 35  1  0  0  0
  6  7  1  0  0  0
  6 36  1  0  0  0
  7  8  1  0  0  0
  7 23  2  0  0  0
  8 37  1  0  0  0
  8 38  1  0  0  0
  8 39  1  0  0  0
  9 10  2  0  0  0
  9 18  1  0  0  0
  9 29  1  0  0  0
 10 11  1  0  0  0
 10 40  1  0  0  0
 11 28  2  0  0  0
 11 30  1  0  0  0
 12 13  1  0  0  0
 12 28  1  0  0  0
 12 29  2  0  0  0
 13 41  1  0  0  0
 13 42  1  0  0  0
 13 43  1  0  0  0
 14 30  1  0  0  0
 14 31  1  0  0  0
 14 44  1  0  0  0
 14 45  1  0  0  0
 15 30  1  0  0  0
 15 32  1  0  0  0
 15 46  1  0  0  0
 15 47  1  0  0  0
 16 17  1  0  0  0
 16 48  1  0  0  0
 16 49  1  0  0  0
 17 33  1  0  0  0
 17 50  1  0  0  0
 17 51  1  0  0  0
 18 19  1  0  0  0
 18 52  1  0  0  0
 19 20  2  0  0  0
 19 21  1  0  0  0
 22 23  1  0  0  0
 22 53  1  0  0  0
 23 24  1  0  0  0
 24 25  2  0  0  0
 24 26  1  0  0  0
 25 54  1  0  0  0
 31 55  1  0  0  0
 31 56  1  0  0  0
 32 57  1  0  0  0
 32 58  1  0  0  0
 33 59  1  0  0  0
M  END
> <s_m_source_file>
C:\GitHub\mcce-charges\epik_inhibitors\output-new\Dasatinib\Dasatinib-input.mol2

> <i_m_source_file_index>
1

> <r_lp_tautomer_probability>
0.999999999985434

> <r_epik_Ionization_Penalty>
  1.3667

> <r_epik_Ionization_Penalty_Charging>
  0.0000

> <r_epik_Ionization_Penalty_Neutral>
  1.3667

> <r_epik_State_Penalty>
  0.8524

> <r_epik_Charging_Adjusted_Penalty>
0.85238183623399

> <i_epik_Tot_Q>
0

> <i_epik_Tot_abs_Q>
0

$$$$
1N1
                    3D
 Structure written by MMmdl.
 60 63  0  0  1  0            999 V2000
   46.6110   82.6200   38.8410 C   0  0  0  0  0  0
   46.7750   82.0670   40.0440 C   0  0  0  0  0  0
   47.6870   82.4940   41.1480 C   0  0  0  0  0  0
   39.1540   74.8480   36.4620 N   0  0  0  0  0  0
   51.3280   84.7110   43.8460 C   0  0  0  0  0  0
   51.6490   83.9220   42.7330 C   0  0  0  0  0  0
   50.6600   83.5350   41.8220 C   0  0  0  0  0  0
   51.0540   82.7460   40.6060 C   0  0  0  0  0  0
   43.3450   79.0450   38.8240 C   0  0  0  0  0  0
   42.2600   78.4660   38.1410 C   0  0  0  0  0  0
   41.6410   77.3640   38.7640 C   0  0  0  0  0  0
   43.1380   77.5250   40.5610 C   0  0  0  0  0  0
   43.6000   77.0970   41.9190 C   0  0  0  0  0  0
   39.8200   75.5660   38.8090 C   0  0  0  0  0  0
   39.9050   77.1490   36.8840 C   0  0  0  0  0  0
   39.2210   73.7370   35.5030 C   0  0  0  0  0  0
   38.3550   73.8890   34.2270 C   0  0  0  0  0  0
   43.9770   80.1180   38.2570 N   0  0  0  0  0  0
   45.0120   80.8680   38.7420 C   0  0  0  0  0  0
   45.5400   81.9390   38.1020 N   0  0  0  0  0  0
   45.8120   80.6770   40.2960 S   0  0  0  0  0  0
   48.3930   83.6260   41.1040 N   0  0  0  0  0  0
   49.3330   83.9150   42.0370 C   0  0  0  0  0  0
   49.0210   84.6530   43.2010 C   0  0  0  0  0  0
   50.0050   85.0710   44.1070 C   0  0  0  0  0  0
   47.3940   85.0560   43.5890 Cl  0  0  0  0  0  0
   47.7260   81.7050   42.0920 O   0  0  0  0  0  0
   42.0970   76.9050   39.9750 N   0  0  0  0  0  0
   43.7640   78.5580   40.0120 N   0  3  0  0  0  0
   40.4900   76.7170   38.1650 N   0  0  0  0  0  0
   39.6220   74.4100   37.7990 C   0  0  0  0  0  0
   39.9110   75.9790   35.8960 C   0  0  0  0  0  0
   37.4960   75.0150   34.2610 O   0  0  0  0  0  0
   47.1860   83.4530   38.4630 H   0  0  0  0  0  0
   52.1130   85.0440   44.5090 H   0  0  0  0  0  0
   52.6710   83.6090   42.5770 H   0  0  0  0  0  0
   52.1366   82.5526   40.6293 H   0  0  0  0  0  0
   50.8031   83.3181   39.7006 H   0  0  0  0  0  0
   50.5108   81.7895   40.5977 H   0  0  0  0  0  0
   41.9190   78.8460   37.1890 H   0  0  0  0  0  0
   43.0021   76.2372   42.2556 H   0  0  0  0  0  0
   43.4765   77.9293   42.6275 H   0  0  0  0  0  0
   44.6608   76.8100   41.8718 H   0  0  0  0  0  0
   40.4359   75.2044   39.6456 H   0  0  0  0  0  0
   38.8356   75.8792   39.1870 H   0  0  0  0  0  0
   38.8701   77.4837   37.0479 H   0  0  0  0  0  0
   40.4977   77.9788   36.4715 H   0  0  0  0  0  0
   40.2576   73.6141   35.1561 H   0  0  0  0  0  0
   38.8856   72.8102   35.9915 H   0  0  0  0  0  0
   39.0101   73.9996   33.3503 H   0  0  0  0  0  0
   37.7245   72.9962   34.1032 H   0  0  0  0  0  0
   43.6592   80.4849   37.2699 H   0  0  0  0  0  0
   48.2185   84.3520   40.2962 H   0  0  0  0  0  0
   49.7480   85.6530   44.9790 H   0  0  0  0  0  0
   38.8860   73.7198   38.2371 H   0  0  0  0  0  0
   40.5905   73.8981   37.6989 H   0  0  0  0  0  0
   40.9486   75.6672   35.7059 H   0  0  0  0  0  0
   39.4447   76.2964   34.9517 H   0  0  0  0  0  0
   36.8323   75.2264   33.4096 H   0  0  0  0  0  0
   44.6229   79.0177   40.5228 H   0  0  0  0  0  0
  1  2  2  0  0  0
  1 20  1  0  0  0
  1 34  1  0  0  0
  2  3  1  0  0  0
  2 21  1  0  0  0
  3 22  1  0  0  0
  3 27  2  0  0  0
  4 16  1  0  0  0
  4 31  1  0  0  0
  4 32  1  0  0  0
  5  6  2  0  0  0
  5 25  1  0  0  0
  5 35  1  0  0  0
  6  7  1  0  0  0
  6 36  1  0  0  0
  7  8  1  0  0  0
  7 23  2  0  0  0
  8 37  1  0  0  0
  8 38  1  0  0  0
  8 39  1  0  0  0
  9 10  2  0  0  0
  9 18  1  0  0  0
  9 29  1  0  0  0
 10 11  1  0  0  0
 10 40  1  0  0  0
 11 28  2  0  0  0
 11 30  1  0  0  0
 12 13  1  0  0  0
 12 28  1  0  0  0
 12 29  2  0  0  0
 13 41  1  0  0  0
 13 42  1  0  0  0
 13 43  1  0  0  0
 14 30  1  0  0  0
 14 31  1  0  0  0
 14 44  1  0  0  0
 14 45  1  0  0  0
 15 30  1  0  0  0
 15 32  1  0  0  0
 15 46  1  0  0  0
 15 47  1  0  0  0
 16 17  1  0  0  0
 16 48  1  0  0  0
 16 49  1  0  0  0
 17 33  1  0  0  0
 17 50  1  0  0  0
 17 51  1  0  0  0
 18 19  1  0  0  0
 18 52  1  0  0  0
 19 20  2  0  0  0
 19 21  1  0  0  0
 22 23  1  0  0  0
 22 53  1  0  0  0
 23 24  1  0  0  0
 24 25  2  0  0  0
 24 26  1  0  0  0
 25 54  1  0  0  0
 29 60  1  0  0  0
 31 55  1  0  0  0
 31 56  1  0  0  0
 32 57  1  0  0  0
 32 58  1  0  0  0
 33 59  1  0  0  0
M  CHG  1  29   1
M  END
> <s_m_source_file>
C:\GitHub\mcce-charges\epik_inhibitors\output-new\Dasatinib\Dasatinib-input.mol2

> <i_m_source_file_index>
1

> <r_lp_tautomer_probability>
0.000663724093006101

> <r_epik_Ionization_Penalty>
  0.2854

> <r_epik_Ionization_Penalty_Charging>
  0.0900

> <r_epik_Ionization_Penalty_Neutral>
  0.1954

> <r_epik_State_Penalty>
  1.6912

> <r_epik_Charging_Adjusted_Penalty>
1.78113548666672

> <i_epik_Tot_Q>
1

> <i_epik_Tot_abs_Q>
1

$$$$
1N1
                    3D
 Structure written by MMmdl.
 60 63  0  0  1  0            999 V2000
   46.6110   82.6200   38.8410 C   0  0  0  0  0  0
   46.7750   82.0670   40.0440 C   0  0  0  0  0  0
   47.6870   82.4940   41.1480 C   0  0  0  0  0  0
   39.1540   74.8480   36.4620 N   0  3  0  0  0  0
   51.3280   84.7110   43.8460 C   0  0  0  0  0  0
   51.6490   83.9220   42.7330 C   0  0  0  0  0  0
   50.6600   83.5350   41.8220 C   0  0  0  0  0  0
   51.0540   82.7460   40.6060 C   0  0  0  0  0  0
   43.3450   79.0450   38.8240 C   0  0  0  0  0  0
   42.2600   78.4660   38.1410 C   0  0  0  0  0  0
   41.6410   77.3640   38.7640 C   0  0  0  0  0  0
   43.1380   77.5250   40.5610 C   0  0  0  0  0  0
   43.6000   77.0970   41.9190 C   0  0  0  0  0  0
   39.8200   75.5660   38.8090 C   0  0  0  0  0  0
   39.9050   77.1490   36.8840 C   0  0  0  0  0  0
   39.2210   73.7370   35.5030 C   0  0  0  0  0  0
   38.3550   73.8890   34.2270 C   0  0  0  0  0  0
   43.9770   80.1180   38.2570 N   0  0  0  0  0  0
   45.0120   80.8680   38.7420 C   0  0  0  0  0  0
   45.5400   81.9390   38.1020 N   0  0  0  0  0  0
   45.8120   80.6770   40.2960 S   0  0  0  0  0  0
   48.3930   83.6260   41.1040 N   0  0  0  0  0  0
   49.3330   83.9150   42.0370 C   0  0  0  0  0  0
   49.0210   84.6530   43.2010 C   0  0  0  0  0  0
   50.0050   85.0710   44.1070 C   0  0  0  0  0  0
   47.3940   85.0560   43.5890 Cl  0  0  0  0  0  0
   47.7260   81.7050   42.0920 O   0  0  0  0  0  0
   42.0970   76.9050   39.9750 N   0  0  0  0  0  0
   43.7640   78.5580   40.0120 N   0  0  0  0  0  0
   40.4900   76.7170   38.1650 N   0  0  0  0  0  0
   39.6220   74.4100   37.7990 C   0  0  0  0  0  0
   39.9110   75.9790   35.8960 C   0  0  0  0  0  0
   37.4960   75.0150   34.2610 O   0  0  0  0  0  0
   47.1860   83.4530   38.4630 H   0  0  0  0  0  0
   52.1130   85.0440   44.5090 H   0  0  0  0  0  0
   52.6710   83.6090   42.5770 H   0  0  0  0  0  0
   52.1366   82.5526   40.6293 H   0  0  0  0  0  0
   50.8031   83.3181   39.7006 H   0  0  0  0  0  0
   50.5108   81.7895   40.5977 H   0  0  0  0  0  0
   41.9190   78.8460   37.1890 H   0  0  0  0  0  0
   43.0021   76.2372   42.2556 H   0  0  0  0  0  0
   43.4765   77.9293   42.6275 H   0  0  0  0  0  0
   44.6608   76.8100   41.8718 H   0  0  0  0  0  0
   40.4359   75.2044   39.6456 H   0  0  0  0  0  0
   38.8356   75.8792   39.1870 H   0  0  0  0  0  0
   38.8701   77.4837   37.0479 H   0  0  0  0  0  0
   40.4977   77.9788   36.4715 H   0  0  0  0  0  0
   40.2576   73.6141   35.1561 H   0  0  0  0  0  0
   38.8856   72.8102   35.9915 H   0  0  0  0  0  0
   39.0101   73.9996   33.3503 H   0  0  0  0  0  0
   37.7245   72.9962   34.1032 H   0  0  0  0  0  0
   43.6592   80.4849   37.2699 H   0  0  0  0  0  0
   48.2185   84.3520   40.2962 H   0  0  0  0  0  0
   49.7480   85.6530   44.9790 H   0  0  0  0  0  0
   38.8860   73.7198   38.2371 H   0  0  0  0  0  0
   40.5905   73.8981   37.6989 H   0  0  0  0  0  0
   40.9486   75.6672   35.7059 H   0  0  0  0  0  0
   39.4447   76.2964   34.9517 H   0  0  0  0  0  0
   36.8323   75.2264   33.4096 H   0  0  0  0  0  0
   38.1173   75.1834   36.6129 H   0  0  0  0  0  0
  1  2  2  0  0  0
  1 20  1  0  0  0
  1 34  1  0  0  0
  2  3  1  0  0  0
  2 21  1  0  0  0
  3 22  1  0  0  0
  3 27  2  0  0  0
  4 16  1  0  0  0
  4 31  1  0  0  0
  4 32  1  0  0  0
  4 60  1  0  0  0
  5  6  2  0  0  0
  5 25  1  0  0  0
  5 35  1  0  0  0
  6  7  1  0  0  0
  6 36  1  0  0  0
  7  8  1  0  0  0
  7 23  2  0  0  0
  8 37  1  0  0  0
  8 38  1  0  0  0
  8 39  1  0  0  0
  9 10  2  0  0  0
  9 18  1  0  0  0
  9 29  1  0  0  0
 10 11  1  0  0  0
 10 40  1  0  0  0
 11 28  2  0  0  0
 11 30  1  0  0  0
 12 13  1  0  0  0
 12 28  1  0  0  0
 12 29  2  0  0  0
 13 41  1  0  0  0
 13 42  1  0  0  0
 13 43  1  0  0  0
 14 30  1  0  0  0
 14 31  1  0  0  0
 14 44  1  0  0  0
 14 45  1  0  0  0
 15 30  1  0  0  0
 15 32  1  0  0  0
 15 46  1  0  0  0
 15 47  1  0  0  0
 16 17  1  0  0  0
 16 48  1  0  0  0
 16 49  1  0  0  0
 17 33  1  0  0  0
 17 50  1  0  0  0
 17 51  1  0  0  0
 18 19  1  0  0  0
 18 52  1  0  0  0
 19 20  2  0  0  0
 19 21  1  0  0  0
 22 23  1  0  0  0
 22 53  1  0  0  0
 23 24  1  0  0  0
 24 25  2  0  0  0
 24 26  1  0  0  0
 25 54  1  0  0  0
 31 55  1  0  0  0
 31 56  1  0  0  0
 32 57  1  0  0  0
 32 58  1  0  0  0
 33 59  1  0  0  0
M  CHG  1   4   1
M  END
> <s_m_source_file>
C:\GitHub\mcce-charges\epik_inhibitors\output-new\Dasatinib\Dasatinib-input.mol2

> <i_m_source_file_index>
1

> <r_epik_Ionization_Penalty>
  0.8865

> <r_epik_Ionization_Penalty_Charging>
  0.7526

> <r_epik_Ionization_Penalty_Neutral>
  0.1339

> <r_epik_State_Penalty>
  2.0427

> <r_epik_Charging_Adjusted_Penalty>
2.7952400149774

> <i_epik_Tot_Q>
1

> <i_epik_Tot_abs_Q>
1

$$$$
1N1
                    3D
 Structure written by MMmdl.
 61 64  0  0  1  0            999 V2000
   46.6110   82.6200   38.8410 C   0  0  0  0  0  0
   46.7750   82.0670   40.0440 C   0  0  0  0  0  0
   47.6870   82.4940   41.1480 C   0  0  0  0  0  0
   39.1540   74.8480   36.4620 N   0  3  0  0  0  0
   51.3280   84.7110   43.8460 C   0  0  0  0  0  0
   51.6490   83.9220   42.7330 C   0  0  0  0  0  0
   50.6600   83.5350   41.8220 C   0  0  0  0  0  0
   51.0540   82.7460   40.6060 C   0  0  0  0  0  0
   43.3450   79.0450   38.8240 C   0  0  0  0  0  0
   42.2600   78.4660   38.1410 C   0  0  0  0  0  0
   41.6410   77.3640   38.7640 C   0  0  0  0  0  0
   43.1380   77.5250   40.5610 C   0  0  0  0  0  0
   43.6000   77.0970   41.9190 C   0  0  0  0  0  0
   39.8200   75.5660   38.8090 C   0  0  0  0  0  0
   39.9050   77.1490   36.8840 C   0  0  0  0  0  0
   39.2210   73.7370   35.5030 C   0  0  0  0  0  0
   38.3550   73.8890   34.2270 C   0  0  0  0  0  0
   43.9770   80.1180   38.2570 N   0  0  0  0  0  0
   45.0120   80.8680   38.7420 C   0  0  0  0  0  0
   45.5400   81.9390   38.1020 N   0  0  0  0  0  0
   45.8120   80.6770   40.2960 S   0  0  0  0  0  0
   48.3930   83.6260   41.1040 N   0  0  0  0  0  0
   49.3330   83.9150   42.0370 C   0  0  0  0  0  0
   49.0210   84.6530   43.2010 C   0  0  0  0  0  0
   50.0050   85.0710   44.1070 C   0  0  0  0  0  0
   47.3940   85.0560   43.5890 Cl  0  0  0  0  0  0
   47.7260   81.7050   42.0920 O   0  0  0  0  0  0
   42.0970   76.9050   39.9750 N   0  0  0  0  0  0
   43.7640   78.5580   40.0120 N   0  3  0  0  0  0
   40.4900   76.7170   38.1650 N   0  0  0  0  0  0
   39.6220   74.4100   37.7990 C   0  0  0  0  0  0
   39.9110   75.9790   35.8960 C   0  0  0  0  0  0
   37.4960   75.0150   34.2610 O   0  0  0  0  0  0
   47.1860   83.4530   38.4630 H   0  0  0  0  0  0
   52.1130   85.0440   44.5090 H   0  0  0  0  0  0
   52.6710   83.6090   42.5770 H   0  0  0  0  0  0
   52.1366   82.5526   40.6293 H   0  0  0  0  0  0
   50.8031   83.3181   39.7006 H   0  0  0  0  0  0
   50.5108   81.7895   40.5977 H   0  0  0  0  0  0
   41.9190   78.8460   37.1890 H   0  0  0  0  0  0
   43.0021   76.2372   42.2556 H   0  0  0  0  0  0
   43.4765   77.9293   42.6275 H   0  0  0  0  0  0
   44.6608   76.8100   41.8718 H   0  0  0  0  0  0
   40.4359   75.2044   39.6456 H   0  0  0  0  0  0
   38.8356   75.8792   39.1870 H   0  0  0  0  0  0
   38.8701   77.4837   37.0479 H   0  0  0  0  0  0
   40.4977   77.9788   36.4715 H   0  0  0  0  0  0
   40.2576   73.6141   35.1561 H   0  0  0  0  0  0
   38.8856   72.8102   35.9915 H   0  0  0  0  0  0
   39.0101   73.9996   33.3503 H   0  0  0  0  0  0
   37.7245   72.9962   34.1032 H   0  0  0  0  0  0
   43.6592   80.4849   37.2699 H   0  0  0  0  0  0
   48.2185   84.3520   40.2962 H   0  0  0  0  0  0
   49.7480   85.6530   44.9790 H   0  0  0  0  0  0
   38.8860   73.7198   38.2371 H   0  0  0  0  0  0
   40.5905   73.8981   37.6989 H   0  0  0  0  0  0
   40.9486   75.6672   35.7059 H   0  0  0  0  0  0
   39.4447   76.2964   34.9517 H   0  0  0  0  0  0
   36.8323   75.2264   33.4096 H   0  0  0  0  0  0
   44.6229   79.0177   40.5228 H   0  0  0  0  0  0
   38.1173   75.1834   36.6129 H   0  0  0  0  0  0
  1  2  2  0  0  0
  1 20  1  0  0  0
  1 34  1  0  0  0
  2  3  1  0  0  0
  2 21  1  0  0  0
  3 22  1  0  0  0
  3 27  2  0  0  0
  4 16  1  0  0  0
  4 31  1  0  0  0
  4 32  1  0  0  0
  4 61  1  0  0  0
  5  6  2  0  0  0
  5 25  1  0  0  0
  5 35  1  0  0  0
  6  7  1  0  0  0
  6 36  1  0  0  0
  7  8  1  0  0  0
  7 23  2  0  0  0
  8 37  1  0  0  0
  8 38  1  0  0  0
  8 39  1  0  0  0
  9 10  2  0  0  0
  9 18  1  0  0  0
  9 29  1  0  0  0
 10 11  1  0  0  0
 10 40  1  0  0  0
 11 28  2  0  0  0
 11 30  1  0  0  0
 12 13  1  0  0  0
 12 28  1  0  0  0
 12 29  2  0  0  0
 13 41  1  0  0  0
 13 42  1  0  0  0
 13 43  1  0  0  0
 14 30  1  0  0  0
 14 31  1  0  0  0
 14 44  1  0  0  0
 14 45  1  0  0  0
 15 30  1  0  0  0
 15 32  1  0  0  0
 15 46  1  0  0  0
 15 47  1  0  0  0
 16 17  1  0  0  0
 16 48  1  0  0  0
 16 49  1  0  0  0
 17 33  1  0  0  0
 17 50  1  0  0  0
 17 51  1  0  0  0
 18 19  1  0  0  0
 18 52  1  0  0  0
 19 20  2  0  0  0
 19 21  1  0  0  0
 22 23  1  0  0  0
 22 53  1  0  0  0
 23 24  1  0  0  0
 24 25  2  0  0  0
 24 26  1  0  0  0
 25 54  1  0  0  0
 29 60  1  0  0  0
 31 55  1  0  0  0
 31 56  1  0  0  0
 32 57  1  0  0  0
 32 58  1  0  0  0
 33 59  1  0  0  0
M  CHG  2   4   1  29   1
M  END
> <s_m_source_file>
C:\GitHub\mcce-charges\epik_inhibitors\output-new\Dasatinib\Dasatinib-input.mol2

> <i_m_source_file_index>
1

> <r_lp_tautomer_probability>
0.000663724093006101

> <r_epik_Ionization_Penalty>
  1.6999

> <r_epik_Ionization_Penalty_Charging>
  1.6997

> <r_epik_Ionization_Penalty_Neutral>
  0.0002

> <r_epik_State_Penalty>
  3.2219

> <r_epik_Charging_Adjusted_Penalty>
4.92160904704095

> <i_epik_Tot_Q>
2

> <i_epik_Tot_abs_Q>
2

$$$$
1N1
                    3D
 Structure written by MMmdl.
 61 64  0  0  1  0            999 V2000
   46.6110   82.6200   38.8410 C   0  0  0  0  0  0
   46.7750   82.0670   40.0440 C   0  0  0  0  0  0
   47.6870   82.4940   41.1480 C   0  0  0  0  0  0
   39.1540   74.8480   36.4620 N   0  0  0  0  0  0
   51.3280   84.7110   43.8460 C   0  0  0  0  0  0
   51.6490   83.9220   42.7330 C   0  0  0  0  0  0
   50.6600   83.5350   41.8220 C   0  0  0  0  0  0
   51.0540   82.7460   40.6060 C   0  0  0  0  0  0
   43.3450   79.0450   38.8240 C   0  0  0  0  0  0
   42.2600   78.4660   38.1410 C   0  0  0  0  0  0
   41.6410   77.3640   38.7640 C   0  0  0  0  0  0
   43.1380   77.5250   40.5610 C   0  0  0  0  0  0
   43.6000   77.0970   41.9190 C   0  0  0  0  0  0
   39.8200   75.5660   38.8090 C   0  0  0  0  0  0
   39.9050   77.1490   36.8840 C   0  0  0  0  0  0
   39.2210   73.7370   35.5030 C   0  0  0  0  0  0
   38.3550   73.8890   34.2270 C   0  0  0  0  0  0
   43.9770   80.1180   38.2570 N   0  0  0  0  0  0
   45.0120   80.8680   38.7420 C   0  0  0  0  0  0
   45.5400   81.9390   38.1020 N   0  3  0  0  0  0
   45.8120   80.6770   40.2960 S   0  0  0  0  0  0
   48.3930   83.6260   41.1040 N   0  0  0  0  0  0
   49.3330   83.9150   42.0370 C   0  0  0  0  0  0
   49.0210   84.6530   43.2010 C   0  0  0  0  0  0
   50.0050   85.0710   44.1070 C   0  0  0  0  0  0
   47.3940   85.0560   43.5890 Cl  0  0  0  0  0  0
   47.7260   81.7050   42.0920 O   0  0  0  0  0  0
   42.0970   76.9050   39.9750 N   0  0  0  0  0  0
   43.7640   78.5580   40.0120 N   0  3  0  0  0  0
   40.4900   76.7170   38.1650 N   0  0  0  0  0  0
   39.6220   74.4100   37.7990 C   0  0  0  0  0  0
   39.9110   75.9790   35.8960 C   0  0  0  0  0  0
   37.4960   75.0150   34.2610 O   0  0  0  0  0  0
   47.1860   83.4530   38.4630 H   0  0  0  0  0  0
   52.1130   85.0440   44.5090 H   0  0  0  0  0  0
   52.6710   83.6090   42.5770 H   0  0  0  0  0  0
   52.1366   82.5526   40.6293 H   0  0  0  0  0  0
   50.8031   83.3181   39.7006 H   0  0  0  0  0  0
   50.5108   81.7895   40.5977 H   0  0  0  0  0  0
   41.9190   78.8460   37.1890 H   0  0  0  0  0  0
   43.0021   76.2372   42.2556 H   0  0  0  0  0  0
   43.4765   77.9293   42.6275 H   0  0  0  0  0  0
   44.6608   76.8100   41.8718 H   0  0  0  0  0  0
   40.4359   75.2044   39.6456 H   0  0  0  0  0  0
   38.8356   75.8792   39.1870 H   0  0  0  0  0  0
   38.8701   77.4837   37.0479 H   0  0  0  0  0  0
   40.4977   77.9788   36.4715 H   0  0  0  0  0  0
   40.2576   73.6141   35.1561 H   0  0  0  0  0  0
   38.8856   72.8102   35.9915 H   0  0  0  0  0  0
   39.0101   73.9996   33.3503 H   0  0  0  0  0  0
   37.7245   72.9962   34.1032 H   0  0  0  0  0  0
   43.6592   80.4849   37.2699 H   0  0  0  0  0  0
   48.2185   84.3520   40.2962 H   0  0  0  0  0  0
   49.7480   85.6530   44.9790 H   0  0  0  0  0  0
   38.8860   73.7198   38.2371 H   0  0  0  0  0  0
   40.5905   73.8981   37.6989 H   0  0  0  0  0  0
   40.9486   75.6672   35.7059 H   0  0  0  0  0  0
   39.4447   76.2964   34.9517 H   0  0  0  0  0  0
   36.8323   75.2264   33.4096 H   0  0  0  0  0  0
   44.6229   79.0177   40.5228 H   0  0  0  0  0  0
   45.2315   82.3105   37.1137 H   0  0  0  0  0  0
  1  2  2  0  0  0
  1 20  1  0  0  0
  1 34  1  0  0  0
  2  3  1  0  0  0
  2 21  1  0  0  0
  3 22  1  0  0  0
  3 27  2  0  0  0
  4 16  1  0  0  0
  4 31  1  0  0  0
  4 32  1  0  0  0
  5  6  2  0  0  0
  5 25  1  0  0  0
  5 35  1  0  0  0
  6  7  1  0  0  0
  6 36  1  0  0  0
  7  8  1  0  0  0
  7 23  2  0  0  0
  8 37  1  0  0  0
  8 38  1  0  0  0
  8 39  1  0  0  0
  9 10  2  0  0  0
  9 18  1  0  0  0
  9 29  1  0  0  0
 10 11  1  0  0  0
 10 40  1  0  0  0
 11 28  2  0  0  0
 11 30  1  0  0  0
 12 13  1  0  0  0
 12 28  1  0  0  0
 12 29  2  0  0  0
 13 41  1  0  0  0
 13 42  1  0  0  0
 13 43  1  0  0  0
 14 30  1  0  0  0
 14 31  1  0  0  0
 14 44  1  0  0  0
 14 45  1  0  0  0
 15 30  1  0  0  0
 15 32  1  0  0  0
 15 46  1  0  0  0
 15 47  1  0  0  0
 16 17  1  0  0  0
 16 48  1  0  0  0
 16 49  1  0  0  0
 17 33  1  0  0  0
 17 50  1  0  0  0
 17 51  1  0  0  0
 18 19  1  0  0  0
 18 52  1  0  0  0
 19 20  2  0  0  0
 19 21  1  0  0  0
 20 61  1  0  0  0
 22 23  1  0  0  0
 22 53  1  0  0  0
 23 24  1  0  0  0
 24 25  2  0  0  0
 24 26  1  0  0  0
 25 54  1  0  0  0
 29 60  1  0  0  0
 31 55  1  0  0  0
 31 56  1  0  0  0
 32 57  1  0  0  0
 32 58  1  0  0  0
 33 59  1  0  0  0
M  CHG  2  20   1  29   1
M  END
> <s_m_source_file>
C:\GitHub\mcce-charges\epik_inhibitors\output-new\Dasatinib\Dasatinib-input.mol2

> <i_m_source_file_index>
1

> <r_epik_Ionization_Penalty>
  7.6256

> <r_epik_Ionization_Penalty_Charging>
  7.4302

> <r_epik_Ionization_Penalty_Neutral>
  0.1954

> <r_epik_State_Penalty>
  5.7330

> <r_epik_Charging_Adjusted_Penalty>
13.1631915387123

> <i_epik_Tot_Q>
2

> <i_epik_Tot_abs_Q>
2

$$$$
