@<TRIPOS>MOLECULE
1N1
   59    62     1     0     0
SMALL
NO_CHARGES

@<TRIPOS>ATOM
      1  C1        46.6110   82.6200   38.8410 C.ar      1 1N1         0.0000
      2  C2        46.7750   82.0670   40.0440 C.ar      1 1N1         0.0000
      3  C3        47.6870   82.4940   41.1480 C.2       1 1N1         0.0000
      4  N6        39.1540   74.8480   36.4620 N.3       1 1N1         0.0000
      5  C7        51.3280   84.7110   43.8460 C.ar      1 1N1         0.0000
      6  C8        51.6490   83.9220   42.7330 C.ar      1 1N1         0.0000
      7  C9        50.6600   83.5350   41.8220 C.ar      1 1N1         0.0000
      8  C10       51.0540   82.7460   40.6060 C.3       1 1N1         0.0000
      9  C11       43.3450   79.0450   38.8240 C.ar      1 1N1         0.0000
     10  C12       42.2600   78.4660   38.1410 C.ar      1 1N1         0.0000
     11  C13       41.6410   77.3640   38.7640 C.ar      1 1N1         0.0000
     12  C14       43.1380   77.5250   40.5610 C.ar      1 1N1         0.0000
     13  C15       43.6000   77.0970   41.9190 C.3       1 1N1         0.0000
     14  C16       39.8200   75.5660   38.8090 C.3       1 1N1         0.0000
     15  C19       39.9050   77.1490   36.8840 C.3       1 1N1         0.0000
     16  C20       39.2210   73.7370   35.5030 C.3       1 1N1         0.0000
     17  C21       38.3550   73.8890   34.2270 C.3       1 1N1         0.0000
     18  N         43.9770   80.1180   38.2570 N.pl3     1 1N1         0.0000
     19  C         45.0120   80.8680   38.7420 C.ar      1 1N1         0.0000
     20  N1        45.5400   81.9390   38.1020 N.ar      1 1N1         0.0000
     21  S         45.8120   80.6770   40.2960 S.3       1 1N1         0.0000
     22  N2        48.3930   83.6260   41.1040 N.am      1 1N1         0.0000
     23  C4        49.3330   83.9150   42.0370 C.ar      1 1N1         0.0000
     24  C5        49.0210   84.6530   43.2010 C.ar      1 1N1         0.0000
     25  C6        50.0050   85.0710   44.1070 C.ar      1 1N1         0.0000
     26 CL         47.3940   85.0560   43.5890 Cl        1 1N1         0.0000
     27  O         47.7260   81.7050   42.0920 O.2       1 1N1         0.0000
     28  N3        42.0970   76.9050   39.9750 N.ar      1 1N1         0.0000
     29  N4        43.7640   78.5580   40.0120 N.ar      1 1N1         0.0000
     30  N5        40.4900   76.7170   38.1650 N.pl3     1 1N1         0.0000
     31  C17       39.6220   74.4100   37.7990 C.3       1 1N1         0.0000
     32  C18       39.9110   75.9790   35.8960 C.3       1 1N1         0.0000
     33  O1        37.4960   75.0150   34.2610 O.3       1 1N1         0.0000
     34  H1        47.1860   83.4530   38.4630 H         1 1N1         0.0000
     35  H7        52.1130   85.0440   44.5090 H         1 1N1         0.0000
     36  H8        52.6710   83.6090   42.5770 H         1 1N1         0.0000
     37 H101       50.9960   81.6710   40.8310 H         1 1N1         0.0000
     38 H102       50.3710   82.9840   39.7770 H         1 1N1         0.0000
     39 H103       52.0840   83.0060   40.3180 H         1 1N1         0.0000
     40  H12       41.9190   78.8460   37.1890 H         1 1N1         0.0000
     41 H151       42.9720   76.2680   42.2760 H         1 1N1         0.0000
     42 H152       44.6470   76.7650   41.8620 H         1 1N1         0.0000
     43 H153       43.5210   77.9440   42.6170 H         1 1N1         0.0000
     44 H161       40.4420   75.2100   39.6440 H         1 1N1         0.0000
     45 H162       38.8370   75.8870   39.1840 H         1 1N1         0.0000
     46 H191       38.8700   77.4840   37.0490 H         1 1N1         0.0000
     47 H192       40.4980   77.9790   36.4720 H         1 1N1         0.0000
     48 H201       40.2680   73.6450   35.1800 H         1 1N1         0.0000
     49 H202       38.8790   72.8310   36.0260 H         1 1N1         0.0000
     50 H211       39.0300   73.9980   33.3650 H         1 1N1         0.0000
     51 H212       37.7340   72.9870   34.1240 H         1 1N1         0.0000
     52  HN        43.6330   80.3930   37.3590 H         1 1N1         0.0000
     53  HN2       48.2240   84.2770   40.3640 H         1 1N1         0.0000
     54  H6        49.7480   85.6530   44.9790 H         1 1N1         0.0000
     55 H171       38.8700   73.7230   38.2130 H         1 1N1         0.0000
     56 H172       40.5890   73.9030   37.6700 H         1 1N1         0.0000
     57 H181       40.9480   75.6660   35.7060 H         1 1N1         0.0000
     58 H182       39.4440   76.2960   34.9520 H         1 1N1         0.0000
     59  HO1       36.9930   75.0550   33.4560 H         1 1N1         0.0000
@<TRIPOS>BOND
     1    1    2 ar
     2    1   20 ar
     3    1   34 1
     4    2    3 1
     5    2   21 ar
     6    3   22 am
     7    3   27 2
     8    4   16 1
     9    4   31 1
    10    4   32 1
    11    5    6 ar
    12    5   25 ar
    13    5   35 1
    14    6    7 ar
    15    6   36 1
    16    7    8 1
    17    7   23 ar
    18    8   37 1
    19    8   38 1
    20    8   39 1
    21    9   10 ar
    22    9   18 1
    23    9   29 ar
    24   10   11 ar
    25   10   40 1
    26   11   28 ar
    27   11   30 1
    28   12   13 1
    29   12   28 ar
    30   12   29 ar
    31   13   41 1
    32   13   42 1
    33   13   43 1
    34   14   30 1
    35   14   31 1
    36   14   44 1
    37   14   45 1
    38   15   30 1
    39   15   32 1
    40   15   46 1
    41   15   47 1
    42   16   17 1
    43   16   48 1
    44   16   49 1
    45   17   33 1
    46   17   50 1
    47   17   51 1
    48   18   19 1
    49   18   52 1
    50   19   20 ar
    51   19   21 ar
    52   22   23 1
    53   22   53 1
    54   23   24 ar
    55   24   25 ar
    56   24   26 1
    57   25   54 1
    58   31   55 1
    59   31   56 1
    60   32   57 1
    61   32   58 1
    62   33   59 1
@<TRIPOS>SUBSTRUCTURE
     1 1N1         1 GROUP 0 A     ****
