RXT
  CCTOOLS-0721180806

 41 44  0  0  1  0  0  0  0  0999 V2000
   -9.9220   26.9370    7.9160 C   0  0  0  0  0
  -10.2330   28.5000    7.8030 C   0  0  0  0  0
  -11.2460   28.6150    6.9090 C   0  0  0  0  0
  -11.9880   27.1340    6.7970 C   0  0  0  0  0
  -11.0620   26.1780    7.1160 C   0  0  0  0  0
  -10.4760   25.4700    5.8710 C   0  0  0  0  0
  -11.5650   24.6940    5.1580 C   0  0  0  0  0
  -11.4280   23.2100    5.4960 C   0  0  0  0  0
  -12.5950   22.7910    6.1840 N   0  0  0  0  0
   -9.8050   26.3380    4.9580 N   0  0  0  0  0
   -8.4850   26.5440    4.9920 C   0  0  0  0  0
  -10.3460   27.0060    3.9620 N   0  0  0  0  0
   -9.4100   27.7040    3.3000 C   0  0  0  0  0
   -8.1570   27.4300    3.9270 C   0  0  0  0  0
   -6.7910   27.9610    3.6250 C   0  0  0  0  0
   -6.6240   29.0140    2.8050 N   0  0  0  0  0
   -5.4140   29.5000    2.5700 C   0  0  0  0  0
   -4.3250   28.9760    3.1280 N   0  0  0  0  0
   -4.4000   27.8950    3.9890 C   0  0  0  0  0
   -5.6420   27.3540    4.2710 C   0  0  0  0  0
   -5.4050   26.2520    5.1970 C   0  0  0  0  0
   -4.0180   26.2290    5.3960 C   0  0  0  0  0
   -3.4550   27.1960    4.6820 N   0  0  0  0  0
   -9.9300   26.6260    8.9710 H   0  0  0  0  0
   -8.9390   26.7150    7.4750 H   0  0  0  0  0
   -9.3450   29.0420    7.4460 H   0  0  0  0  0
  -10.5390   28.9010    8.7810 H   0  0  0  0  0
  -10.8480   28.9100    5.9270 H   0  0  0  0  0
  -11.9670   29.3710    7.2540 H   0  0  0  0  0
  -12.8340   27.0850    7.4990 H   0  0  0  0  0
  -12.3530   26.9750    5.7720 H   0  0  0  0  0
  -11.4950   25.4150    7.7800 H   0  0  0  0  0
   -9.7470   24.7340    6.2410 H   0  0  0  0  0
  -11.4660   24.8350    4.0720 H   0  0  0  0  0
  -12.5500   25.0570    5.4860 H   0  0  0  0  0
   -7.7920   26.1150    5.7000 H   0  0  0  0  0
   -9.5740   28.3520    2.4520 H   0  0  0  0  0
   -5.3080   30.3460    1.9070 H   0  0  0  0  0
   -6.1410   25.5940    5.6350 H   0  0  0  0  0
   -3.4900   25.5330    6.0310 H   0  0  0  0  0
   -2.4740   27.3860    4.6560 H   0  0  0  0  0
  1 24  1  0  0  0
  1 25  1  0  0  0
  2  1  1  0  0  0
  2 26  1  0  0  0
  2 27  1  0  0  0
  3  2  1  0  0  0
  3 28  1  0  0  0
  3 29  1  0  0  0
  4  3  1  0  0  0
  4  5  1  0  0  0
  4 30  1  0  0  0
  4 31  1  0  0  0
  5  1  1  0  0  0
  5 32  1  0  0  0
  6  5  1  0  0  0
  6 33  1  0  0  0
  7  8  1  0  0  0
  7  6  1  0  0  0
  7 34  1  0  0  0
  7 35  1  0  0  0
  8  9  3  0  0  0
 10 11  1  0  0  0
 10  6  1  0  0  0
 11 36  1  0  0  0
 12 10  1  0  0  0
 13 14  1  0  0  0
 13 12  2  0  0  0
 13 37  1  0  0  0
 14 11  2  0  0  0
 15 14  1  0  0  0
 15 20  2  0  0  0
 16 15  1  0  0  0
 17 16  2  0  0  0
 17 18  1  0  0  0
 17 38  1  0  0  0
 18 19  2  0  0  0
 19 20  1  0  0  0
 19 23  1  0  0  0
 20 21  1  0  0  0
 21 22  2  0  0  0
 21 39  1  0  0  0
 22 40  1  0  0  0
 23 22  1  0  0  0
 23 41  1  0  0  0
M  END
$$$$
