RXT
                    3D
 Structure written by MMmdl.
 41 44  0  0  1  0            999 V2000
   -9.9220   26.9370    7.9160 C   0  0  0  0  0  0
  -10.2330   28.5000    7.8030 C   0  0  0  0  0  0
  -11.2460   28.6150    6.9090 C   0  0  0  0  0  0
  -11.9880   27.1340    6.7970 C   0  0  0  0  0  0
  -11.0620   26.1780    7.1160 C   0  0  0  0  0  0
  -10.4760   25.4700    5.8710 C   0  0  1  0  0  0
  -11.5650   24.6940    5.1580 C   0  0  0  0  0  0
  -11.4280   23.2100    5.4960 C   0  0  0  0  0  0
  -12.5950   22.7910    6.1840 N   0  0  0  0  0  0
   -9.8050   26.3380    4.9580 N   0  0  0  0  0  0
   -8.4850   26.5440    4.9920 C   0  0  0  0  0  0
  -10.3460   27.0060    3.9620 N   0  0  0  0  0  0
   -9.4100   27.7040    3.3000 C   0  0  0  0  0  0
   -8.1570   27.4300    3.9270 C   0  0  0  0  0  0
   -6.7910   27.9610    3.6250 C   0  0  0  0  0  0
   -6.6240   29.0140    2.8050 N   0  0  0  0  0  0
   -5.4140   29.5000    2.5700 C   0  0  0  0  0  0
   -4.3250   28.9760    3.1280 N   0  0  0  0  0  0
   -4.4000   27.8950    3.9890 C   0  0  0  0  0  0
   -5.6420   27.3540    4.2710 C   0  0  0  0  0  0
   -5.4050   26.2520    5.1970 C   0  0  0  0  0  0
   -4.0180   26.2290    5.3960 C   0  0  0  0  0  0
   -3.4550   27.1960    4.6820 N   0  0  0  0  0  0
   -8.9347   26.7271    7.4787 H   0  0  0  0  0  0
   -9.9252   26.6381    8.9746 H   0  0  0  0  0  0
  -10.5273   28.8875    8.7895 H   0  0  0  0  0  0
   -9.3334   29.0286    7.4549 H   0  0  0  0  0  0
  -11.9594   29.3756    7.2591 H   0  0  0  0  0  0
  -10.8402   28.9152    5.9317 H   0  0  0  0  0  0
  -12.8350   27.0943    7.4977 H   0  0  0  0  0  0
  -12.3540   26.9839    5.7706 H   0  0  0  0  0  0
  -11.6503   25.4375    7.6778 H   0  0  0  0  0  0
   -9.6513   24.8128    6.1840 H   0  0  0  0  0  0
  -12.5497   25.0581    5.4864 H   0  0  0  0  0  0
  -11.4652   24.8360    4.0718 H   0  0  0  0  0  0
   -7.7920   26.1150    5.7000 H   0  0  0  0  0  0
   -9.5740   28.3520    2.4520 H   0  0  0  0  0  0
   -5.3080   30.3460    1.9070 H   0  0  0  0  0  0
   -6.1410   25.5940    5.6350 H   0  0  0  0  0  0
   -3.4900   25.5330    6.0310 H   0  0  0  0  0  0
   -2.3937   27.4720    4.5960 H   0  0  0  0  0  0
  1 24  1  0  0  0
  1 25  1  0  0  0
  1  2  1  0  0  0
  1  5  1  0  0  0
  2 26  1  0  0  0
  2 27  1  0  0  0
  2  3  1  0  0  0
  3 28  1  0  0  0
  3 29  1  0  0  0
  3  4  1  0  0  0
  4  5  1  0  0  0
  4 30  1  0  0  0
  4 31  1  0  0  0
  5 32  1  0  0  0
  5  6  1  0  0  0
  6 33  1  0  0  0
  6  7  1  0  0  0
  6 10  1  0  0  0
  7  8  1  0  0  0
  7 34  1  0  0  0
  7 35  1  0  0  0
  8  9  3  0  0  0
 10 11  1  0  0  0
 10 12  1  0  0  0
 11 36  1  0  0  0
 11 14  2  0  0  0
 12 13  2  0  0  0
 13 14  1  0  0  0
 13 37  1  0  0  0
 14 15  1  0  0  0
 15 20  2  0  0  0
 15 16  1  0  0  0
 16 17  2  0  0  0
 17 18  1  0  0  0
 17 38  1  0  0  0
 18 19  2  0  0  0
 19 20  1  0  0  0
 19 23  1  0  0  0
 20 21  1  0  0  0
 21 22  2  0  0  0
 21 39  1  0  0  0
 22 40  1  0  0  0
 22 23  1  0  0  0
 23 41  1  0  0  0
M  END
> <s_m_source_file>
C:\GitHub\mcce-charges\epik_inhibitors\output-new\Ruxolitinib\Ruxolitinib-input.mol2

> <i_m_source_file_index>
1

> <r_lp_tautomer_probability>
0.999998369746258

> <r_epik_Ionization_Penalty>
  0.0000

> <r_epik_Ionization_Penalty_Charging>
  0.0000

> <r_epik_Ionization_Penalty_Neutral>
  0.0000

> <r_epik_State_Penalty>
  0.0000

> <r_epik_Charging_Adjusted_Penalty>
3.95702826403062e-006

> <i_epik_Tot_Q>
0

> <i_epik_Tot_abs_Q>
0

$$$$
