@<TRIPOS>MOLECULE
RXT
   41    44     1     0     0
SMALL
NO_CHARGES

@<TRIPOS>ATOM
      1  CAK       -9.9220   26.9370    7.9160 C.3       1 RXT         0.0000
      2  CAH      -10.2330   28.5000    7.8030 C.3       1 RXT         0.0000
      3  CAI      -11.2460   28.6150    6.9090 C.3       1 RXT         0.0000
      4  CAL      -11.9880   27.1340    6.7970 C.3       1 RXT         0.0000
      5  CAU      -11.0620   26.1780    7.1160 C.3       1 RXT         0.0000
      6  CAV      -10.4760   25.4700    5.8710 C.3       1 RXT         0.0000
      7  CAJ      -11.5650   24.6940    5.1580 C.3       1 RXT         0.0000
      8  CAB      -11.4280   23.2100    5.4960 C.1       1 RXT         0.0000
      9  NAA      -12.5950   22.7910    6.1840 N.1       1 RXT         0.0000
     10  NAW       -9.8050   26.3380    4.9580 N.pl3     1 RXT         0.0000
     11  CAG       -8.4850   26.5440    4.9920 C.ar      1 RXT         0.0000
     12  NAO      -10.3460   27.0060    3.9620 N.ar      1 RXT         0.0000
     13  CAF       -9.4100   27.7040    3.3000 C.ar      1 RXT         0.0000
     14  CAQ       -8.1570   27.4300    3.9270 C.ar      1 RXT         0.0000
     15  CAR       -6.7910   27.9610    3.6250 C.ar      1 RXT         0.0000
     16  NAM       -6.6240   29.0140    2.8050 N.ar      1 RXT         0.0000
     17  CAE       -5.4140   29.5000    2.5700 C.ar      1 RXT         0.0000
     18  NAP       -4.3250   28.9760    3.1280 N.ar      1 RXT         0.0000
     19  CAT       -4.4000   27.8950    3.9890 C.ar      1 RXT         0.0000
     20  CAS       -5.6420   27.3540    4.2710 C.ar      1 RXT         0.0000
     21  CAD       -5.4050   26.2520    5.1970 C.ar      1 RXT         0.0000
     22  CAC       -4.0180   26.2290    5.3960 C.ar      1 RXT         0.0000
     23  NAN       -3.4550   27.1960    4.6820 N.pl3     1 RXT         0.0000
     24  H1        -9.9300   26.6260    8.9710 H         1 RXT         0.0000
     25  H2        -8.9390   26.7150    7.4750 H         1 RXT         0.0000
     26  H3        -9.3450   29.0420    7.4460 H         1 RXT         0.0000
     27  H4       -10.5390   28.9010    8.7810 H         1 RXT         0.0000
     28  H5       -10.8480   28.9100    5.9270 H         1 RXT         0.0000
     29  H6       -11.9670   29.3710    7.2540 H         1 RXT         0.0000
     30  H7       -12.8340   27.0850    7.4990 H         1 RXT         0.0000
     31  H8       -12.3530   26.9750    5.7720 H         1 RXT         0.0000
     32  H9       -11.4950   25.4150    7.7800 H         1 RXT         0.0000
     33  H10       -9.7470   24.7340    6.2410 H         1 RXT         0.0000
     34  H11      -11.4660   24.8350    4.0720 H         1 RXT         0.0000
     35  H12      -12.5500   25.0570    5.4860 H         1 RXT         0.0000
     36  H18       -7.7920   26.1150    5.7000 H         1 RXT         0.0000
     37  H19       -9.5740   28.3520    2.4520 H         1 RXT         0.0000
     38  H20       -5.3080   30.3460    1.9070 H         1 RXT         0.0000
     39  H21       -6.1410   25.5940    5.6350 H         1 RXT         0.0000
     40  H22       -3.4900   25.5330    6.0310 H         1 RXT         0.0000
     41  H23       -2.4740   27.3860    4.6560 H         1 RXT         0.0000
@<TRIPOS>BOND
     1    1   24 1
     2    1   25 1
     3    1    2 1
     4    2   26 1
     5    2   27 1
     6    2    3 1
     7    3   28 1
     8    3   29 1
     9    3    4 1
    10    4    5 1
    11    4   30 1
    12    4   31 1
    13    1    5 1
    14    5   32 1
    15    5    6 1
    16    6   33 1
    17    7    8 1
    18    6    7 1
    19    7   34 1
    20    7   35 1
    21    8    9 3
    22   10   11 ar
    23    6   10 1
    24   11   36 1
    25   10   12 ar
    26   13   14 ar
    27   12   13 ar
    28   13   37 1
    29   11   14 ar
    30   14   15 1
    31   15   20 ar
    32   15   16 ar
    33   16   17 ar
    34   17   18 ar
    35   17   38 1
    36   18   19 ar
    37   19   20 ar
    38   19   23 ar
    39   20   21 ar
    40   21   22 ar
    41   21   39 1
    42   22   40 1
    43   22   23 ar
    44   23   41 1
@<TRIPOS>SUBSTRUCTURE
     1 RXT         1 GROUP 0 A     ****
