EMH
  CCTOOLS-0502160706

 70 75  0  0  0  0  0  0  0  0999 V2000
  -22.4010   14.1550  -10.5160 C   0  0  0  0  0
  -20.1640   15.1350  -10.7330 C   0  0  0  0  0
  -21.5450   15.1350  -11.0290 C   0  0  0  0  0
  -22.4310   12.1100   -9.0180 C   0  0  0  0  0
  -21.4340   11.4490   -8.3300 C   0  0  0  0  0
  -24.6420    8.1130   -6.6440 C   0  0  0  0  0
  -25.3930    9.9110   -8.0880 C   0  0  0  0  0
  -24.0840   10.3960   -8.1500 C   0  0  0  0  0
  -21.6250   10.2130   -7.4880 C   0  0  0  0  0
  -21.2180   10.5350   -6.0410 C   0  0  0  0  0
  -20.6900    9.1620   -8.0760 C   0  0  0  0  0
  -28.1260    9.4070   -7.0980 C   0  0  0  0  0
  -25.1870    4.2990   -4.7470 C   0  0  0  0  0
  -25.9750    4.7210   -5.9880 C   0  0  0  0  0
  -18.6010   16.8220  -11.6880 N   0  0  0  0  0
  -19.3540   16.0480  -11.2240 C   0  0  0  0  0
  -19.6410   14.1530   -9.8910 C   0  0  0  0  0
  -20.4810   13.1820   -9.3580 C   0  0  0  0  0
  -21.8460   13.1890   -9.6630 C   0  0  0  0  0
  -20.2580   12.1110   -8.5280 N   0  0  0  0  0
  -23.0250    9.7500   -7.4660 C   0  0  0  0  0
  -23.8330   11.6270   -8.9630 C   0  0  0  0  0
  -24.7640   12.1950   -9.5580 O   0  0  0  0  0
  -23.3280    8.5880   -6.7070 C   0  0  0  0  0
  -25.6720    8.7690   -7.3210 C   0  0  0  0  0
  -27.1110    8.2840   -7.2630 C   0  0  0  0  0
  -24.9540    6.9370   -5.8820 N   0  0  0  0  0
  -24.0260    6.5610   -4.8050 C   0  0  0  0  0
  -24.7950    5.5450   -3.9400 C   0  0  0  0  0
  -25.1670    5.7650   -6.7690 C   0  0  0  0  0
  -25.9240    3.3790   -3.8210 N   0  0  0  0  0
  -27.0110    2.5900   -4.4370 C   0  0  0  0  0
  -27.6660    1.7130   -3.3690 C   0  0  0  0  0
  -26.6850    0.8430   -2.7970 O   0  0  0  0  0
  -25.6310    1.5590   -2.1540 C   0  0  0  0  0
  -24.9470    2.4710   -3.1770 C   0  0  0  0  0
  -23.4510   14.1420  -10.7670 H   0  0  0  0  0
  -21.9490   15.9090  -11.6650 H   0  0  0  0  0
  -26.1840   10.4110   -8.6260 H   0  0  0  0  0
  -21.3520    9.6410   -5.4140 H   0  0  0  0  0
  -20.1630   10.8440   -6.0170 H   0  0  0  0  0
  -21.8480   11.3510   -5.6560 H   0  0  0  0  0
  -20.7810    8.2280   -7.5030 H   0  0  0  0  0
  -20.9620    8.9760   -9.1260 H   0  0  0  0  0
  -19.6530    9.5240   -8.0240 H   0  0  0  0  0
  -29.1400    8.9830   -7.0640 H   0  0  0  0  0
  -27.9240    9.9490   -6.1620 H   0  0  0  0  0
  -28.0470   10.1000   -7.9480 H   0  0  0  0  0
  -24.3150    3.7500   -5.1320 H   0  0  0  0  0
  -26.1550    3.8430   -6.6260 H   0  0  0  0  0
  -26.9390    5.1550   -5.6820 H   0  0  0  0  0
  -18.5870   14.1470   -9.6540 H   0  0  0  0  0
  -22.5420    8.0700   -6.1770 H   0  0  0  0  0
  -27.2090    7.6050   -6.4030 H   0  0  0  0  0
  -27.3330    7.7580   -8.2030 H   0  0  0  0  0
  -23.1100    6.1120   -5.2160 H   0  0  0  0  0
  -23.7370    7.4410   -4.2120 H   0  0  0  0  0
  -25.7100    6.0240   -3.5610 H   0  0  0  0  0
  -24.1530    5.2360   -3.1020 H   0  0  0  0  0
  -24.1980    5.3410   -7.0710 H   0  0  0  0  0
  -25.7190    6.0710   -7.6700 H   0  0  0  0  0
  -27.7620    3.2700   -4.8660 H   0  0  0  0  0
  -26.5980    1.9530   -5.2330 H   0  0  0  0  0
  -28.0930    2.3520   -2.5820 H   0  0  0  0  0
  -28.4650    1.1120   -3.8280 H   0  0  0  0  0
  -26.0440    2.1670   -1.3360 H   0  0  0  0  0
  -24.8980    0.8480   -1.7460 H   0  0  0  0  0
  -24.4750    1.8480   -3.9510 H   0  0  0  0  0
  -24.1840    3.0740   -2.6630 H   0  0  0  0  0
  -19.3750   11.8570   -8.1320 H   0  0  0  0  0
  1  3  2  0  0  0
  1 19  1  0  0  0
  1 37  1  0  0  0
  2  3  1  0  0  0
  2 16  1  0  0  0
  2 17  2  0  0  0
  3 38  1  0  0  0
  4  5  2  0  0  0
  4 19  1  0  0  0
  4 22  1  0  0  0
  5  9  1  0  0  0
  5 20  1  0  0  0
  6 24  2  0  0  0
  6 25  1  0  0  0
  6 27  1  0  0  0
  7  8  1  0  0  0
  7 25  2  0  0  0
  7 39  1  0  0  0
  8 21  2  0  0  0
  8 22  1  0  0  0
  9 10  1  0  0  0
  9 11  1  0  0  0
  9 21  1  0  0  0
 10 40  1  0  0  0
 10 41  1  0  0  0
 10 42  1  0  0  0
 11 43  1  0  0  0
 11 44  1  0  0  0
 11 45  1  0  0  0
 12 26  1  0  0  0
 12 46  1  0  0  0
 12 47  1  0  0  0
 12 48  1  0  0  0
 13 14  1  0  0  0
 13 29  1  0  0  0
 13 31  1  0  0  0
 13 49  1  0  0  0
 14 30  1  0  0  0
 14 50  1  0  0  0
 14 51  1  0  0  0
 15 16  3  0  0  0
 17 18  1  0  0  0
 17 52  1  0  0  0
 18 19  2  0  0  0
 18 20  1  0  0  0
 20 70  1  0  0  0
 21 24  1  0  0  0
 22 23  2  0  0  0
 24 53  1  0  0  0
 25 26  1  0  0  0
 26 54  1  0  0  0
 26 55  1  0  0  0
 27 28  1  0  0  0
 27 30  1  0  0  0
 28 29  1  0  0  0
 28 56  1  0  0  0
 28 57  1  0  0  0
 29 58  1  0  0  0
 29 59  1  0  0  0
 30 60  1  0  0  0
 30 61  1  0  0  0
 31 32  1  0  0  0
 31 36  1  0  0  0
 32 33  1  0  0  0
 32 62  1  0  0  0
 32 63  1  0  0  0
 33 34  1  0  0  0
 33 64  1  0  0  0
 33 65  1  0  0  0
 34 35  1  0  0  0
 35 36  1  0  0  0
 35 66  1  0  0  0
 35 67  1  0  0  0
 36 68  1  0  0  0
 36 69  1  0  0  0
M  END
$$$$
