KIM
  CCTOOLS-0721180817

 55 58  0  0  0  0  0  0  0  0999 V2000
    6.0200   41.7280    5.0700 N   0  0  0  0  0
    7.1920   40.7770    6.9400 N   0  0  0  0  0
    7.0160   42.6060    4.5910 C   0  0  0  0  0
    6.0660   40.9220    6.2230 C   0  0  0  0  0
    4.9090   39.5540    7.5850 C   0  0  0  0  0
    6.0050   39.3540    8.3730 C   0  0  0  0  0
    7.1710   39.9990    8.0230 C   0  0  0  0  0
    8.5420   38.8350    9.7940 C   0  0  0  0  0
    8.9390   36.8970   11.7100 C   0  0  0  0  0
    9.1260   34.8060   13.2690 C   0  0  0  0  0
    9.1680   39.2020   10.9720 C   0  0  0  0  0
    6.6560   43.9040    0.7890 C   0  0  0  0  0
    8.9050   44.3410    3.5490 C   0  0  0  0  0
   10.9060   44.3900    2.5140 C   0  0  0  0  0
    9.6190   44.7170    6.8690 C   0  0  0  0  0
   10.1100   44.2850    5.6000 O   0  0  0  0  0
    9.0280   43.8810    4.8390 C   0  0  0  0  0
    8.0900   43.0150    5.3570 C   0  0  0  0  0
    4.9060   40.3280    6.5070 N   0  0  0  0  0
    8.3270   39.8160    8.8150 N   0  0  0  0  0
    9.4720   40.6740    8.5500 C   0  0  0  0  0
    8.1300   37.5310    9.5890 C   0  0  0  0  0
    8.3160   36.5390   10.5290 C   0  0  0  0  0
    9.3180   36.2230   12.9050 C   0  0  0  0  0
    9.9200   37.0510   13.7630 N   0  0  0  0  0
    9.9280   38.2370   13.1340 N   0  0  0  0  0
    9.3490   38.2030   11.8960 C   0  0  0  0  0
    6.8950   43.0730    3.2980 C   0  0  0  0  0
    7.8370   43.9360    2.7820 C   0  0  0  0  0
    7.7710   44.4330    1.4910 O   0  0  0  0  0
    9.8580   45.2110    3.0320 O   0  0  0  0  0
    5.1830   41.6720    4.5260 H   0  0  0  0  0
    3.9910   39.0530    7.8540 H   0  0  0  0  0
    5.9600   38.7130    9.2410 H   0  0  0  0  0
    9.0780   34.1950   12.3550 H   0  0  0  0  0
    9.9690   34.4700   13.8910 H   0  0  0  0  0
    8.1880   34.6960   13.8320 H   0  0  0  0  0
    9.4950   40.2150   11.1540 H   0  0  0  0  0
    5.8150   43.7670    1.4850 H   0  0  0  0  0
    6.3610   44.6010   -0.0090 H   0  0  0  0  0
    6.9280   42.9340    0.3470 H   0  0  0  0  0
   10.7160   44.1790    1.4510 H   0  0  0  0  0
   11.8670   44.9140    2.6170 H   0  0  0  0  0
   10.9420   43.4440    3.0750 H   0  0  0  0  0
   10.4600   44.8280    7.5700 H   0  0  0  0  0
    9.1070   45.6840    6.7540 H   0  0  0  0  0
    8.9110   43.9720    7.2610 H   0  0  0  0  0
    8.1950   42.6530    6.3690 H   0  0  0  0  0
    9.5270   40.8910    7.4730 H   0  0  0  0  0
    9.3610   41.6160    9.1080 H   0  0  0  0  0
   10.3930   40.1640    8.8690 H   0  0  0  0  0
    7.6440   37.2800    8.6580 H   0  0  0  0  0
    7.9890   35.5250   10.3500 H   0  0  0  0  0
   10.3200   39.0660   13.5330 H   0  0  0  0  0
    6.0600   42.7610    2.6890 H   0  0  0  0  0
  1  3  1  0  0  0
  1  4  1  0  0  0
  1 32  1  0  0  0
  2  4  2  0  0  0
  2  7  1  0  0  0
  3 18  2  0  0  0
  3 28  1  0  0  0
  4 19  1  0  0  0
  5  6  1  0  0  0
  5 19  2  0  0  0
  5 33  1  0  0  0
  6  7  2  0  0  0
  6 34  1  0  0  0
  7 20  1  0  0  0
  8 11  2  0  0  0
  8 20  1  0  0  0
  8 22  1  0  0  0
  9 23  1  0  0  0
  9 24  1  0  0  0
  9 27  2  0  0  0
 10 24  1  0  0  0
 10 35  1  0  0  0
 10 36  1  0  0  0
 10 37  1  0  0  0
 11 27  1  0  0  0
 11 38  1  0  0  0
 12 30  1  0  0  0
 12 39  1  0  0  0
 12 40  1  0  0  0
 12 41  1  0  0  0
 13 17  2  0  0  0
 13 29  1  0  0  0
 13 31  1  0  0  0
 14 31  1  0  0  0
 14 42  1  0  0  0
 14 43  1  0  0  0
 14 44  1  0  0  0
 15 16  1  0  0  0
 15 45  1  0  0  0
 15 46  1  0  0  0
 15 47  1  0  0  0
 16 17  1  0  0  0
 17 18  1  0  0  0
 18 48  1  0  0  0
 20 21  1  0  0  0
 21 49  1  0  0  0
 21 50  1  0  0  0
 21 51  1  0  0  0
 22 23  2  0  0  0
 22 52  1  0  0  0
 23 53  1  0  0  0
 24 25  2  0  0  0
 25 26  1  0  0  0
 26 27  1  0  0  0
 26 54  1  0  0  0
 28 29  2  0  0  0
 28 55  1  0  0  0
 29 30  1  0  0  0
M  END
$$$$
