@<TRIPOS>MOLECULE
XIN
   73    77     1     0     0
SMALL
NO_CHARGES

@<TRIPOS>ATOM
      1  C1        21.3310   64.4740   30.7450 C.2       1 XIN         0.0000
      2  C2        20.9760   63.1320   31.1930 C.ar      1 XIN         0.0000
      3  C3        20.8030   65.3580   29.8830 C.2       1 XIN         0.0000
      4  C4        22.5800   64.8020   31.4790 C.2       1 XIN         0.0000
      5  C5        21.9510   62.7530   32.0920 C.ar      1 XIN         0.0000
      6  C6        19.9510   62.2800   30.9270 C.ar      1 XIN         0.0000
      7  C7        19.5670   65.0430   29.1840 C.ar      1 XIN         0.0000
      8  C11       21.9460   61.5360   32.7280 C.ar      1 XIN         0.0000
      9  C12       19.9250   61.0470   31.5410 C.ar      1 XIN         0.0000
     10  C15       21.0950   67.6490   28.8550 C.ar      1 XIN         0.0000
     11  C16       20.8970   60.6570   32.4460 C.ar      1 XIN         0.0000
     12  C17       17.2270   64.6330   29.3230 C.ar      1 XIN         0.0000
     13  C18       18.3210   64.6410   27.2250 C.ar      1 XIN         0.0000
     14  C19       22.1550   68.4590   28.7880 C.ar      1 XIN         0.0000
     15  C21       20.8490   59.3010   33.0550 C.2       1 XIN         0.0000
     16  C23       22.1340   69.6170   28.0560 C.ar      1 XIN         0.0000
     17  C24       19.9460   69.1960   27.3650 C.ar      1 XIN         0.0000
     18  O25       21.9080   58.9770   33.7750 O.3       1 XIN         0.0000
     19  O26       19.9910   58.5370   32.8490 O.2       1 XIN         0.0000
     20  C27       21.0450   70.0310   27.3330 C.ar      1 XIN         0.0000
     21  C30       20.6560   72.4280   27.1380 C.2       1 XIN         0.0000
     22  C31       21.8660   71.3300   25.3760 C.3       1 XIN         0.0000
     23  C32       20.1990   72.3990   28.6000 C.3       1 XIN         0.0000
     24  C35       19.6040   74.0660   30.2000 C.3       1 XIN         0.0000
     25  C36       21.8290   73.3870   30.1250 C.3       1 XIN         0.0000
     26  C37       19.9350   75.4220   30.7970 C.3       1 XIN         0.0000
     27  C38       22.2460   74.7440   30.6790 C.3       1 XIN         0.0000
     28  C40       21.6020   76.7500   31.7510 C.3       1 XIN         0.0000
     29  O33       20.6590   73.4410   26.5050 O.2       1 XIN         0.0000
     30  N34       20.6530   73.5700   29.3270 N.3       1 XIN         0.0000
     31  N39       21.2120   75.3920   31.4700 N.3       1 XIN         0.0000
     32  N29       21.1430   71.2580   26.6250 N.am      1 XIN         0.0000
     33  C20       19.9940   68.0210   28.1170 C.ar      1 XIN         0.0000
     34  N8        21.3550   66.5720   29.6290 N.pl3     1 XIN         0.0000
     35  C14       19.5140   64.9250   27.8200 C.ar      1 XIN         0.0000
     36  C22       17.1770   64.4780   27.9650 C.ar      1 XIN         0.0000
     37  C13       18.4160   64.9180   29.9220 C.ar      1 XIN         0.0000
     38  C28       21.8240   57.6660   34.2350 C.3       1 XIN         0.0000
     39  N9        22.8730   63.7300   32.2230 N.am      1 XIN         0.0000
     40  O10       23.1970   65.7690   31.4040 O.2       1 XIN         0.0000
     41  H6        19.1660   62.5660   30.2420 H         1 XIN         0.0000
     42  H11       22.7270   61.2670   33.4230 H         1 XIN         0.0000
     43  H12       19.1210   60.3640   31.3090 H         1 XIN         0.0000
     44  H17       16.3300   64.5300   29.9160 H         1 XIN         0.0000
     45  H18       18.2750   64.5420   26.1500 H         1 XIN         0.0000
     46  H19       23.0530   68.1940   29.3260 H         1 XIN         0.0000
     47  H23       23.0200   70.2350   28.0480 H         1 XIN         0.0000
     48  H24       19.0540   69.4500   26.8110 H         1 XIN         0.0000
     49  H31       21.1520   71.3480   24.5390 H         1 XIN         0.0000
     50 H31A       22.4760   72.2450   25.3580 H         1 XIN         0.0000
     51 H31B       22.5200   70.4510   25.2800 H         1 XIN         0.0000
     52  H32       19.1000   72.3710   28.6260 H         1 XIN         0.0000
     53 H32A       20.6310   71.5080   29.0780 H         1 XIN         0.0000
     54  H35       19.4670   73.3480   31.0220 H         1 XIN         0.0000
     55 H35A       18.6910   74.1790   29.5970 H         1 XIN         0.0000
     56  H36       22.6390   72.9700   29.5080 H         1 XIN         0.0000
     57 H36A       21.6230   72.6880   30.9490 H         1 XIN         0.0000
     58  H37       19.9730   76.1680   29.9900 H         1 XIN         0.0000
     59 H37A       19.1570   75.6830   31.5300 H         1 XIN         0.0000
     60  H38       23.1260   74.5950   31.3220 H         1 XIN         0.0000
     61 H38A       22.4540   75.3970   29.8180 H         1 XIN         0.0000
     62  H40       21.7010   76.8860   32.8380 H         1 XIN         0.0000
     63 H40A       22.5660   76.9620   31.2650 H         1 XIN         0.0000
     64 H40B       20.8360   77.4390   31.3640 H         1 XIN         0.0000
     65  H20       19.1290   67.3750   28.1200 H         1 XIN         0.0000
     66  HN8       22.1880   66.7070   30.1650 H         1 XIN         0.0000
     67  H14       20.4050   65.0550   27.2240 H         1 XIN         0.0000
     68  H22       16.2450   64.2290   27.4790 H         1 XIN         0.0000
     69  H13       18.4540   65.0480   30.9940 H         1 XIN         0.0000
     70  H28       21.8020   56.9770   33.3780 H         1 XIN         0.0000
     71 H28A       22.6980   57.4410   34.8630 H         1 XIN         0.0000
     72 H28B       20.9050   57.5440   34.8270 H         1 XIN         0.0000
     73  HN9       23.6810   63.6600   32.8080 H         1 XIN         0.0000
@<TRIPOS>BOND
     1    1    2 1
     2    1    3 2
     3    1    4 1
     4    2    5 ar
     5    2    6 ar
     6    3    7 1
     7    3   34 1
     8    4   39 am
     9    4   40 2
    10    5    8 ar
    11    5   39 1
    12    6    9 ar
    13    6   41 1
    14    7   35 ar
    15    7   37 ar
    16    8   11 ar
    17    8   42 1
    18    9   11 ar
    19    9   43 1
    20   10   14 ar
    21   10   33 ar
    22   10   34 1
    23   11   15 1
    24   12   36 ar
    25   12   37 ar
    26   12   44 1
    27   13   35 ar
    28   13   36 ar
    29   13   45 1
    30   14   16 ar
    31   14   46 1
    32   15   18 1
    33   15   19 2
    34   16   20 ar
    35   16   47 1
    36   17   20 ar
    37   17   33 ar
    38   17   48 1
    39   18   38 1
    40   20   32 1
    41   21   23 1
    42   21   29 2
    43   21   32 am
    44   22   32 1
    45   22   49 1
    46   22   50 1
    47   22   51 1
    48   23   30 1
    49   23   52 1
    50   23   53 1
    51   24   26 1
    52   24   30 1
    53   24   54 1
    54   24   55 1
    55   25   27 1
    56   25   30 1
    57   25   56 1
    58   25   57 1
    59   26   31 1
    60   26   58 1
    61   26   59 1
    62   27   31 1
    63   27   60 1
    64   27   61 1
    65   28   31 1
    66   28   62 1
    67   28   63 1
    68   28   64 1
    69   33   65 1
    70   34   66 1
    71   35   67 1
    72   36   68 1
    73   37   69 1
    74   38   70 1
    75   38   71 1
    76   38   72 1
    77   39   73 1
@<TRIPOS>SUBSTRUCTURE
     1 XIN         1 GROUP 0 A     ****
