@<TRIPOS>MOLECULE
B49
   56    58     1     0     0
SMALL
NO_CHARGES

@<TRIPOS>ATOM
      1  C4       -12.5570   70.4800  -38.3840 C.3       1 B49         0.0000
      2  C5       -17.2200   78.9120  -37.0410 C.ar      1 B49         0.0000
      3  C6       -15.9490   78.6880  -37.6290 C.ar      1 B49         0.0000
      4  C7       -17.4610   76.4830  -36.5450 C.ar      1 B49         0.0000
      5  C13      -15.7520   71.3360  -36.5950 C.ar      1 B49         0.0000
      6  C15      -17.9580   77.8080  -36.5030 C.ar      1 B49         0.0000
      7  C17      -16.2070   76.2720  -37.1310 C.ar      1 B49         0.0000
      8  C20      -15.3940   75.0750  -37.3600 C.2       1 B49         0.0000
      9  C21      -14.1310   75.5470  -38.0500 C.2       1 B49         0.0000
     10  C22      -14.9040   68.8820  -36.6820 C.2       1 B49         0.0000
     11  C3       -17.0050   71.1090  -35.8030 C.3       1 B49         0.0000
     12  C12      -15.8450   73.8610  -36.9720 C.2       1 B49         0.0000
     13  C14      -13.8060   70.9660  -37.7090 C.ar      1 B49         0.0000
     14  C16      -15.4740   77.3620  -37.6560 C.ar      1 B49         0.0000
     15  C18      -15.2880   72.5530  -37.0820 C.ar      1 B49         0.0000
     16  C19      -14.8080   70.3190  -36.9890 C.ar      1 B49         0.0000
     17  N23      -14.1260   72.3020  -37.7440 N.pl3     1 B49         0.0000
     18  N24      -14.2720   76.9180  -38.1800 N.am      1 B49         0.0000
     19  N25      -15.2650   68.5790  -35.3700 N.am      1 B49         0.0000
     20  O27      -13.1940   74.8890  -38.4210 O.2       1 B49         0.0000
     21  O28      -14.6630   68.0270  -37.5350 O.2       1 B49         0.0000
     22  F29      -19.1470   78.0170  -35.9440 F         1 B49         0.0000
     23  H4       -12.7840   70.2100  -39.4260 H         1 B49         0.0000
     24  H4A      -11.7980   71.2760  -38.3680 H         1 B49         0.0000
     25  H4B      -12.1730   69.5970  -37.8520 H         1 B49         0.0000
     26  H5       -17.6300   79.9100  -36.9990 H         1 B49         0.0000
     27  H6       -15.3690   79.5010  -38.0390 H         1 B49         0.0000
     28  H7       -18.0310   75.6610  -36.1380 H         1 B49         0.0000
     29  H3       -17.8400   70.9030  -36.4880 H         1 B49         0.0000
     30  H3A      -16.8630   70.2500  -35.1300 H         1 B49         0.0000
     31  H3B      -17.2310   72.0070  -35.2090 H         1 B49         0.0000
     32  H12      -16.8100   73.8870  -36.4870 H         1 B49         0.0000
     33 HN23      -13.5750   73.0010  -38.1990 H         1 B49         0.0000
     34 HN24      -13.5890   77.5150  -38.6010 H         1 B49         0.0000
     35 HN25      -15.3370   67.6100  -35.1350 H         1 B49         0.0000
     36  C37      -15.5500   69.5440  -34.2990 C.3       1 B49         0.0000
     37  C38      -15.9380   69.0450  -32.8950 C.3       1 B49         0.0000
     38  N4       -16.2230   70.0100  -31.8230 N.3       1 B49         0.0000
     39  C39      -15.1350   70.4930  -30.9610 C.3       1 B49         0.0000
     40  C40      -17.5960   70.4930  -31.6150 C.3       1 B49         0.0000
     41  C41      -17.8940   71.5040  -30.4930 C.3       1 B49         0.0000
     42  C42      -15.4340   71.5040  -29.8380 C.3       1 B49         0.0000
     43  H14      -14.6320   70.1360  -34.1690 H         1 B49         0.0000
     44  H15      -16.3970   70.1500  -34.6520 H         1 B49         0.0000
     45  H16      -16.8560   68.4540  -33.0250 H         1 B49         0.0000
     46  H17      -15.0910   68.4390  -32.5420 H         1 B49         0.0000
     47  H18      -14.7190   69.6030  -30.4670 H         1 B49         0.0000
     48  H19      -14.4110   70.9840  -31.6290 H         1 B49         0.0000
     49  H20      -17.8930   70.9830  -32.5540 H         1 B49         0.0000
     50  H21      -18.2020   69.6030  -31.3930 H         1 B49         0.0000
     51  H22      -18.9670   71.7460  -30.4920 H         1 B49         0.0000
     52  H23      -17.6160   71.0670  -29.5230 H         1 B49         0.0000
     53  H24      -17.3120   72.4220  -30.6630 H         1 B49         0.0000
     54  H25      -14.5030   71.7460  -29.3040 H         1 B49         0.0000
     55  H26      -15.8560   72.4220  -30.2740 H         1 B49         0.0000
     56  H27      -16.1570   71.0660  -29.1340 H         1 B49         0.0000
@<TRIPOS>BOND
     1    1   13 1
     2    1   23 1
     3    1   24 1
     4    1   25 1
     5    2    3 ar
     6    2    6 ar
     7    2   26 1
     8    3   14 ar
     9    3   27 1
    10    4    6 ar
    11    4    7 ar
    12    4   28 1
    13    5   11 1
    14    5   15 ar
    15    5   16 ar
    16    6   22 1
    17    7    8 1
    18    7   14 ar
    19    8    9 1
    20    8   12 2
    21    9   18 am
    22    9   20 2
    23   10   16 1
    24   10   19 am
    25   10   21 2
    26   11   29 1
    27   11   30 1
    28   11   31 1
    29   12   15 1
    30   12   32 1
    31   13   16 ar
    32   13   17 ar
    33   14   18 1
    34   15   17 ar
    35   17   33 1
    36   18   34 1
    37   19   35 1
    38   19   36 1
    39   36   37 1
    40   36   43 1
    41   36   44 1
    42   37   38 1
    43   37   45 1
    44   37   46 1
    45   38   39 1
    46   38   40 1
    47   39   42 1
    48   39   47 1
    49   39   48 1
    50   40   41 1
    51   40   49 1
    52   40   50 1
    53   41   51 1
    54   41   52 1
    55   41   53 1
    56   42   54 1
    57   42   55 1
    58   42   56 1
@<TRIPOS>SUBSTRUCTURE
     1 B49         1 GROUP 0 A     ****
