@<TRIPOS>MOLECULE
4-[(4-methylpiperazin-1-ium-1-yl)methyl]-~{N}-[4-methyl-3-[[4-(3-pyridyl)pyrimidin-2-yl]amino]phenyl]benzamide
   69    73     1     0     0
SMALL
USER_CHARGES

@<TRIPOS>ATOM
      1 C1         16.3560  100.4060   50.6140 C.ar      1 STI        -0.2559
      2 C6         15.2180  100.0120   51.4140 C.ar      1 STI        -0.0474
      3 C5         15.0890  100.4530   52.7980 C.ar      1 STI        -0.2831
      4 C4         16.1380  101.2980   53.3390 C.ar      1 STI         0.4202
      5 N3         17.2200  101.6600   52.5430 N.ar      1 STI        -0.6647
      6 C2         17.3560  101.2430   51.2150 C.ar      1 STI         0.4135
      7 C7         13.9280  100.0780   53.6730 C.ar      1 STI         0.5471
      8 C12        12.7230   99.4700   53.1730 C.ar      1 STI        -0.4037
      9 C11        11.7040   99.1720   54.1140 C.ar      1 STI         0.4604
     10 N10        11.8810   99.4640   55.4560 N.ar      1 STI        -0.7410
     11 C9         13.0530  100.0500   55.9070 C.ar      1 STI         0.8821
     12 N8         14.0460  100.3450   55.0230 N.ar      1 STI        -0.7584
     13 N13        13.2630  100.3620   57.2530 N.pl3     1 STI        -0.7383
     14 C14        12.3020  100.1090   58.2460 C.ar      1 STI         0.1738
     15 C19        11.1950  101.0400   58.4880 C.ar      1 STI        -0.1083
     16 C18        10.2510  100.7220   59.5240 C.ar      1 STI        -0.0964
     17 C17        10.3860   99.5200   60.3090 C.ar      1 STI        -0.1491
     18 C16        11.4560   98.6100   60.0860 C.ar      1 STI         0.0527
     19 C15        12.4240   98.9210   59.0320 C.ar      1 STI        -0.1590
     20 N21        11.5160   97.4360   60.9230 N.am      1 STI        -0.4534
     21 C22        12.4460   96.4150   60.9100 C.2       1 STI         0.6698
     22 C23        12.4720   95.4420   62.0420 C.ar      1 STI        -0.1033
     23 C25        13.6890   94.6960   62.3640 C.ar      1 STI        -0.0788
     24 C26        13.6820   93.7490   63.4490 C.ar      1 STI        -0.1217
     25 C27        12.4630   93.5460   64.2140 C.ar      1 STI        -0.1538
     26 C28        11.2740   94.3010   63.8790 C.ar      1 STI        -0.1217
     27 C29        11.2720   95.2300   62.8170 C.ar      1 STI        -0.0788
     28 C46        12.3710   92.5420   65.3680 C.3       1 STI         0.1721
     29 N48        11.2300   91.5790   65.3640 N.4       1 STI        -0.6890
     30 C53        11.2140   90.7780   64.0930 C.3       1 STI         0.1075
     31 C52        10.0310   89.7760   64.0670 C.3       1 STI         0.1452
     32 N51        10.0810   88.8580   65.2780 N.3       1 STI        -0.7426
     33 C54         8.9850   87.8750   65.3060 C.3       1 STI         0.1527
     34 C50        10.0700   89.6590   66.5720 C.3       1 STI         0.1452
     35 C49        11.2730   90.6520   66.5740 C.3       1 STI         0.1075
     36 O29        13.2580   96.2310   60.0240 O.2       1 STI        -0.5698
     37 C20        10.9860  102.3510   57.6940 C.3       1 STI        -0.0553
     38 H11        16.4590  100.0740   49.5660 H         1 STI         0.1504
     39 H61        14.4410   99.3690   50.9640 H         1 STI         0.1556
     40 H41        16.1120  101.6720   54.3760 H         1 STI         0.0242
     41 H21        18.2430  101.5700   50.6470 H         1 STI         0.0295
     42 H121       12.5840   99.2390   52.1030 H         1 STI         0.1611
     43 H111       10.7560   98.7040   53.7960 H         1 STI         0.0284
     44 H131       14.2099  100.8239   57.5693 H         1 STI         0.4541
     45 H181        9.4110  101.4100   59.7190 H         1 STI         0.1445
     46 H171        9.6520   99.2900   61.1000 H         1 STI         0.1712
     47 H151       13.2680   98.2410   58.8240 H         1 STI         0.1446
     48 H211       10.7496   97.2709   61.6947 H         1 STI         0.3198
     49 H251       14.6160   94.8480   61.7860 H         1 STI         0.1724
     50 H261       14.5990   93.1860   63.6910 H         1 STI         0.1395
     51 H281       10.3400   94.1640   64.4500 H         1 STI         0.1395
     52 H291       10.3440   95.7830   62.5950 H         1 STI         0.1724
     53 H461       13.2755   91.9162   65.3825 H         1 STI         0.1071
     54 H462       12.2856   93.0852   66.3207 H         1 STI         0.1071
     55 H531       11.1140   91.4567   63.2331 H         1 STI         0.1092
     56 H532       12.1524   90.2108   64.0052 H         1 STI         0.1092
     57 H521        9.0808   90.3301   64.0787 H         1 STI         0.0746
     58 H522       10.0879   89.1651   63.1540 H         1 STI         0.0746
     59 H541        8.9897   87.2939   64.3720 H         1 STI         0.0577
     60 H542        8.0238   88.4004   65.4062 H         1 STI         0.0577
     61 H543        9.1228   87.1964   66.1607 H         1 STI         0.0577
     62 H501        9.1279   90.2218   66.6468 H         1 STI         0.0746
     63 H502       10.1567   88.9738   67.4281 H         1 STI         0.0746
     64 H491       12.2064   90.0701   66.5571 H         1 STI         0.1092
     65 H492       11.2306   91.2504   67.4960 H         1 STI         0.1092
     66 H201       11.7820  102.4551   56.9420 H         1 STI         0.0500
     67 H202       11.0194  103.2069   58.3841 H         1 STI         0.0500
     68 H203       10.0080  102.3232   57.1913 H         1 STI         0.0500
     69 H69        10.3106   92.1812   65.4089 H         1 STI         0.4445
@<TRIPOS>BOND
     1    1    2 ar
     2    1    6 ar
     3    1   38 1
     4    2    3 ar
     5    2   39 1
     6    3    4 ar
     7    3    7 1
     8    4    5 ar
     9    4   40 1
    10    5    6 ar
    11    6   41 1
    12    7    8 ar
    13    7   12 ar
    14    8    9 ar
    15    8   42 1
    16    9   10 ar
    17    9   43 1
    18   10   11 ar
    19   11   12 ar
    20   11   13 1
    21   13   14 1
    22   13   44 1
    23   14   15 ar
    24   14   19 ar
    25   15   16 ar
    26   15   37 1
    27   16   17 ar
    28   16   45 1
    29   17   18 ar
    30   17   46 1
    31   18   19 ar
    32   18   20 1
    33   19   47 1
    34   20   21 am
    35   20   48 1
    36   21   22 1
    37   21   36 2
    38   22   23 ar
    39   22   27 ar
    40   23   24 ar
    41   23   49 1
    42   24   25 ar
    43   24   50 1
    44   25   26 ar
    45   25   28 1
    46   26   27 ar
    47   26   51 1
    48   27   52 1
    49   28   29 1
    50   28   53 1
    51   28   54 1
    52   29   30 1
    53   29   35 1
    54   29   69 1
    55   30   31 1
    56   30   55 1
    57   30   56 1
    58   31   32 1
    59   31   57 1
    60   31   58 1
    61   32   33 1
    62   32   34 1
    63   33   59 1
    64   33   60 1
    65   33   61 1
    66   34   35 1
    67   34   62 1
    68   34   63 1
    69   35   64 1
    70   35   65 1
    71   37   66 1
    72   37   67 1
    73   37   68 1
@<TRIPOS>SUBSTRUCTURE
     1 STI         1 GROUP   0 A     ****
@<TRIPOS>MOLECULE
4-[(4-methylpiperazin-4-ium-1-yl)methyl]-~{N}-[4-methyl-3-[[4-(3-pyridyl)pyrimidin-2-yl]amino]phenyl]benzamide
   69    73     1     0     0
SMALL
USER_CHARGES

@<TRIPOS>ATOM
      1 C1         16.3560  100.4060   50.6140 C.ar      1 STI        -0.2517
      2 C6         15.2180  100.0120   51.4140 C.ar      1 STI        -0.0576
      3 C5         15.0890  100.4530   52.7980 C.ar      1 STI        -0.2753
      4 C4         16.1380  101.2980   53.3390 C.ar      1 STI         0.4169
      5 N3         17.2200  101.6600   52.5430 N.ar      1 STI        -0.6623
      6 C2         17.3560  101.2430   51.2150 C.ar      1 STI         0.4058
      7 C7         13.9280  100.0780   53.6730 C.ar      1 STI         0.5368
      8 C12        12.7230   99.4700   53.1730 C.ar      1 STI        -0.4080
      9 C11        11.7040   99.1720   54.1140 C.ar      1 STI         0.4625
     10 N10        11.8810   99.4640   55.4560 N.ar      1 STI        -0.7344
     11 C9         13.0530  100.0500   55.9070 C.ar      1 STI         0.8914
     12 N8         14.0460  100.3450   55.0230 N.ar      1 STI        -0.7552
     13 N13        13.2630  100.3620   57.2530 N.pl3     1 STI        -0.7584
     14 C14        12.3020  100.1090   58.2460 C.ar      1 STI         0.1802
     15 C19        11.1950  101.0400   58.4880 C.ar      1 STI        -0.0723
     16 C18        10.2510  100.7220   59.5240 C.ar      1 STI        -0.1037
     17 C17        10.3860   99.5200   60.3090 C.ar      1 STI        -0.1498
     18 C16        11.4560   98.6100   60.0860 C.ar      1 STI         0.0614
     19 C15        12.4240   98.9210   59.0320 C.ar      1 STI        -0.1995
     20 N21        11.5160   97.4360   60.9230 N.am      1 STI        -0.4617
     21 C22        12.4460   96.4150   60.9100 C.2       1 STI         0.6764
     22 C23        12.4720   95.4420   62.0420 C.ar      1 STI        -0.1278
     23 C25        13.6890   94.6960   62.3640 C.ar      1 STI        -0.0891
     24 C26        13.6820   93.7490   63.4490 C.ar      1 STI        -0.1244
     25 C27        12.4630   93.5460   64.2140 C.ar      1 STI        -0.0985
     26 C28        11.2740   94.3010   63.8790 C.ar      1 STI        -0.1244
     27 C29        11.2720   95.2300   62.8170 C.ar      1 STI        -0.0891
     28 C46        12.3710   92.5420   65.3680 C.3       1 STI         0.2257
     29 N48        11.2300   91.5790   65.3640 N.3       1 STI        -0.7590
     30 C53        11.2140   90.7780   64.0930 C.3       1 STI         0.1526
     31 C52        10.0310   89.7760   64.0670 C.3       1 STI         0.1061
     32 N51        10.0810   88.8580   65.2780 N.4       1 STI        -0.6829
     33 C54         8.9850   87.8750   65.3060 C.3       1 STI         0.0837
     34 C50        10.0700   89.6590   66.5720 C.3       1 STI         0.1061
     35 C49        11.2730   90.6520   66.5740 C.3       1 STI         0.1526
     36 O29        13.2580   96.2310   60.0240 O.2       1 STI        -0.5784
     37 C20        10.9860  102.3510   57.6940 C.3       1 STI        -0.0520
     38 H11        16.4590  100.0740   49.5660 H         1 STI         0.1478
     39 H61        14.4410   99.3690   50.9640 H         1 STI         0.1497
     40 H41        16.1120  101.6720   54.3760 H         1 STI         0.0271
     41 H21        18.2430  101.5700   50.6470 H         1 STI         0.0271
     42 H121       12.5840   99.2390   52.1030 H         1 STI         0.1619
     43 H111       10.7560   98.7040   53.7960 H         1 STI         0.0313
     44 H131       14.2099  100.8239   57.5693 H         1 STI         0.4609
     45 H181        9.4110  101.4100   59.7190 H         1 STI         0.1426
     46 H171        9.6520   99.2900   61.1000 H         1 STI         0.1730
     47 H151       13.2680   98.2410   58.8240 H         1 STI         0.1322
     48 H211       10.7496   97.2709   61.6947 H         1 STI         0.3180
     49 H251       14.6160   94.8480   61.7860 H         1 STI         0.1583
     50 H261       14.5990   93.1860   63.6910 H         1 STI         0.1406
     51 H281       10.3400   94.1640   64.4500 H         1 STI         0.1406
     52 H291       10.3440   95.7830   62.5950 H         1 STI         0.1583
     53 H461       13.2755   91.9162   65.3825 H         1 STI         0.0585
     54 H462       12.2856   93.0852   66.3207 H         1 STI         0.0585
     55 H531       11.1140   91.4567   63.2331 H         1 STI         0.0774
     56 H532       12.1524   90.2108   64.0052 H         1 STI         0.0774
     57 H521        9.0808   90.3301   64.0787 H         1 STI         0.1107
     58 H522       10.0879   89.1651   63.1540 H         1 STI         0.1107
     59 H541        8.9897   87.2939   64.3720 H         1 STI         0.1060
     60 H542        8.0238   88.4004   65.4062 H         1 STI         0.1060
     61 H543        9.1228   87.1964   66.1607 H         1 STI         0.1060
     62 H501        9.1279   90.2218   66.6468 H         1 STI         0.1107
     63 H502       10.1567   88.9738   67.4281 H         1 STI         0.1107
     64 H491       12.2064   90.0701   66.5571 H         1 STI         0.0774
     65 H492       11.2306   91.2504   67.4960 H         1 STI         0.0774
     66 H201       11.7820  102.4551   56.9420 H         1 STI         0.0516
     67 H202       11.0194  103.2069   58.3841 H         1 STI         0.0516
     68 H203       10.0080  102.3232   57.1913 H         1 STI         0.0516
     69 H69        11.0061   88.2695   65.1892 H         1 STI         0.4455
@<TRIPOS>BOND
     1    1    2 ar
     2    1    6 ar
     3    1   38 1
     4    2    3 ar
     5    2   39 1
     6    3    4 ar
     7    3    7 1
     8    4    5 ar
     9    4   40 1
    10    5    6 ar
    11    6   41 1
    12    7    8 ar
    13    7   12 ar
    14    8    9 ar
    15    8   42 1
    16    9   10 ar
    17    9   43 1
    18   10   11 ar
    19   11   12 ar
    20   11   13 1
    21   13   14 1
    22   13   44 1
    23   14   15 ar
    24   14   19 ar
    25   15   16 ar
    26   15   37 1
    27   16   17 ar
    28   16   45 1
    29   17   18 ar
    30   17   46 1
    31   18   19 ar
    32   18   20 1
    33   19   47 1
    34   20   21 am
    35   20   48 1
    36   21   22 1
    37   21   36 2
    38   22   23 ar
    39   22   27 ar
    40   23   24 ar
    41   23   49 1
    42   24   25 ar
    43   24   50 1
    44   25   26 ar
    45   25   28 1
    46   26   27 ar
    47   26   51 1
    48   27   52 1
    49   28   29 1
    50   28   53 1
    51   28   54 1
    52   29   30 1
    53   29   35 1
    54   30   31 1
    55   30   55 1
    56   30   56 1
    57   31   32 1
    58   31   57 1
    59   31   58 1
    60   32   33 1
    61   32   34 1
    62   32   69 1
    63   33   59 1
    64   33   60 1
    65   33   61 1
    66   34   35 1
    67   34   62 1
    68   34   63 1
    69   35   64 1
    70   35   65 1
    71   37   66 1
    72   37   67 1
    73   37   68 1
@<TRIPOS>SUBSTRUCTURE
     1 STI         1 GROUP   0 A     ****
@<TRIPOS>MOLECULE
4-[(4-methylpiperazin-1-yl)methyl]-~{N}-[4-methyl-3-[[4-(3-pyridyl)pyrimidin-2-yl]amino]phenyl]benzamide
   68    72     1     0     0
SMALL
USER_CHARGES

@<TRIPOS>ATOM
      1 C1         16.3560  100.4060   50.6140 C.ar      1 STI        -0.2514
      2 C6         15.2180  100.0120   51.4140 C.ar      1 STI        -0.0528
      3 C5         15.0890  100.4530   52.7980 C.ar      1 STI        -0.2743
      4 C4         16.1380  101.2980   53.3390 C.ar      1 STI         0.4166
      5 N3         17.2200  101.6600   52.5430 N.ar      1 STI        -0.6641
      6 C2         17.3560  101.2430   51.2150 C.ar      1 STI         0.4013
      7 C7         13.9280  100.0780   53.6730 C.ar      1 STI         0.5305
      8 C12        12.7230   99.4700   53.1730 C.ar      1 STI        -0.3985
      9 C11        11.7040   99.1720   54.1140 C.ar      1 STI         0.4610
     10 N10        11.8810   99.4640   55.4560 N.ar      1 STI        -0.7282
     11 C9         13.0530  100.0500   55.9070 C.ar      1 STI         0.8739
     12 N8         14.0460  100.3450   55.0230 N.ar      1 STI        -0.7472
     13 N13        13.2630  100.3620   57.2530 N.pl3     1 STI        -0.7016
     14 C14        12.3020  100.1090   58.2460 C.ar      1 STI         0.1684
     15 C19        11.1950  101.0400   58.4880 C.ar      1 STI        -0.1461
     16 C18        10.2510  100.7220   59.5240 C.ar      1 STI        -0.0870
     17 C17        10.3860   99.5200   60.3090 C.ar      1 STI        -0.1582
     18 C16        11.4560   98.6100   60.0860 C.ar      1 STI         0.0796
     19 C15        12.4240   98.9210   59.0320 C.ar      1 STI        -0.1949
     20 N21        11.5160   97.4360   60.9230 N.am      1 STI        -0.4713
     21 C22        12.4460   96.4150   60.9100 C.2       1 STI         0.6790
     22 C23        12.4720   95.4420   62.0420 C.ar      1 STI        -0.1491
     23 C25        13.6890   94.6960   62.3640 C.ar      1 STI        -0.0944
     24 C26        13.6820   93.7490   63.4490 C.ar      1 STI        -0.1259
     25 C27        12.4630   93.5460   64.2140 C.ar      1 STI        -0.0580
     26 C28        11.2740   94.3010   63.8790 C.ar      1 STI        -0.1259
     27 C29        11.2720   95.2300   62.8170 C.ar      1 STI        -0.0944
     28 C46        12.3710   92.5420   65.3680 C.3       1 STI         0.2146
     29 N48        11.2300   91.5790   65.3640 N.3       1 STI        -0.7436
     30 C53        11.2140   90.7780   64.0930 C.3       1 STI         0.1715
     31 C52        10.0310   89.7760   64.0670 C.3       1 STI         0.1693
     32 N51        10.0810   88.8580   65.2780 N.3       1 STI        -0.7365
     33 C54         8.9850   87.8750   65.3060 C.3       1 STI         0.1578
     34 C50        10.0700   89.6590   66.5720 C.3       1 STI         0.1693
     35 C49        11.2730   90.6520   66.5740 C.3       1 STI         0.1715
     36 O29        13.2580   96.2310   60.0240 O.2       1 STI        -0.5822
     37 C20        10.9860  102.3510   57.6940 C.3       1 STI        -0.0537
     38 H11        16.4590  100.0740   49.5660 H         1 STI         0.1489
     39 H61        14.4410   99.3690   50.9640 H         1 STI         0.1477
     40 H41        16.1120  101.6720   54.3760 H         1 STI         0.0278
     41 H21        18.2430  101.5700   50.6470 H         1 STI         0.0252
     42 H121       12.5840   99.2390   52.1030 H         1 STI         0.1628
     43 H111       10.7560   98.7040   53.7960 H         1 STI         0.0277
     44 H131       14.2099  100.8239   57.5693 H         1 STI         0.4419
     45 H181        9.4110  101.4100   59.7190 H         1 STI         0.1350
     46 H171        9.6520   99.2900   61.1000 H         1 STI         0.1657
     47 H151       13.2680   98.2410   58.8240 H         1 STI         0.1672
     48 H211       10.7496   97.2709   61.6947 H         1 STI         0.3198
     49 H251       14.6160   94.8480   61.7860 H         1 STI         0.1477
     50 H261       14.5990   93.1860   63.6910 H         1 STI         0.1429
     51 H281       10.3400   94.1640   64.4500 H         1 STI         0.1429
     52 H291       10.3440   95.7830   62.5950 H         1 STI         0.1477
     53 H461       13.2755   91.9162   65.3825 H         1 STI         0.0429
     54 H462       12.2856   93.0852   66.3207 H         1 STI         0.0429
     55 H531       11.1140   91.4567   63.2331 H         1 STI         0.0391
     56 H532       12.1524   90.2108   64.0052 H         1 STI         0.0391
     57 H521        9.0808   90.3301   64.0787 H         1 STI         0.0387
     58 H522       10.0879   89.1651   63.1540 H         1 STI         0.0387
     59 H541        8.9897   87.2939   64.3720 H         1 STI         0.0325
     60 H542        8.0238   88.4004   65.4062 H         1 STI         0.0325
     61 H543        9.1228   87.1964   66.1607 H         1 STI         0.0325
     62 H501        9.1279   90.2218   66.6468 H         1 STI         0.0387
     63 H502       10.1567   88.9738   67.4281 H         1 STI         0.0387
     64 H491       12.2064   90.0701   66.5571 H         1 STI         0.0391
     65 H492       11.2306   91.2504   67.4960 H         1 STI         0.0391
     66 H201       11.7820  102.4551   56.9420 H         1 STI         0.0433
     67 H202       11.0194  103.2069   58.3841 H         1 STI         0.0433
     68 H203       10.0080  102.3232   57.1913 H         1 STI         0.0433
@<TRIPOS>BOND
     1    1    2 ar
     2    1    6 ar
     3    1   38 1
     4    2    3 ar
     5    2   39 1
     6    3    4 ar
     7    3    7 1
     8    4    5 ar
     9    4   40 1
    10    5    6 ar
    11    6   41 1
    12    7    8 ar
    13    7   12 ar
    14    8    9 ar
    15    8   42 1
    16    9   10 ar
    17    9   43 1
    18   10   11 ar
    19   11   12 ar
    20   11   13 1
    21   13   14 1
    22   13   44 1
    23   14   15 ar
    24   14   19 ar
    25   15   16 ar
    26   15   37 1
    27   16   17 ar
    28   16   45 1
    29   17   18 ar
    30   17   46 1
    31   18   19 ar
    32   18   20 1
    33   19   47 1
    34   20   21 am
    35   20   48 1
    36   21   22 1
    37   21   36 2
    38   22   23 ar
    39   22   27 ar
    40   23   24 ar
    41   23   49 1
    42   24   25 ar
    43   24   50 1
    44   25   26 ar
    45   25   28 1
    46   26   27 ar
    47   26   51 1
    48   27   52 1
    49   28   29 1
    50   28   53 1
    51   28   54 1
    52   29   30 1
    53   29   35 1
    54   30   31 1
    55   30   55 1
    56   30   56 1
    57   31   32 1
    58   31   57 1
    59   31   58 1
    60   32   33 1
    61   32   34 1
    62   33   59 1
    63   33   60 1
    64   33   61 1
    65   34   35 1
    66   34   62 1
    67   34   63 1
    68   35   64 1
    69   35   65 1
    70   37   66 1
    71   37   67 1
    72   37   68 1
@<TRIPOS>SUBSTRUCTURE
     1 STI         1 GROUP   0 A     ****
@<TRIPOS>MOLECULE
~{N}-[3-[[4-(1,2-dihydropyridin-2-ylium-3-yl)pyrimidin-2-yl]amino]-4-methyl-phenyl]-4-[(4-methylpiperazin-1-ium-1-yl)methyl]benzamide
   70    74     1     0     0
SMALL
USER_CHARGES

@<TRIPOS>ATOM
      1 C1         16.3560  100.4060   50.6140 C.ar      1 STI        -0.1306
      2 C6         15.2180  100.0120   51.4140 C.ar      1 STI         0.0047
      3 C5         15.0890  100.4530   52.7980 C.ar      1 STI        -0.1291
      4 C4         16.1380  101.2980   53.3390 C.cat     1 STI         0.0889
      5 N3         17.2200  101.6600   52.5430 N.pl3     1 STI        -0.4504
      6 C2         17.3560  101.2430   51.2150 C.ar      1 STI         0.0819
      7 C7         13.9280  100.0780   53.6730 C.ar      1 STI         0.4938
      8 C12        12.7230   99.4700   53.1730 C.ar      1 STI        -0.4059
      9 C11        11.7040   99.1720   54.1140 C.ar      1 STI         0.4910
     10 N10        11.8810   99.4640   55.4560 N.ar      1 STI        -0.7153
     11 C9         13.0530  100.0500   55.9070 C.ar      1 STI         0.9193
     12 N8         14.0460  100.3450   55.0230 N.ar      1 STI        -0.7578
     13 N13        13.2630  100.3620   57.2530 N.pl3     1 STI        -0.7317
     14 C14        12.3020  100.1090   58.2460 C.ar      1 STI         0.1587
     15 C19        11.1950  101.0400   58.4880 C.ar      1 STI        -0.0795
     16 C18        10.2510  100.7220   59.5240 C.ar      1 STI        -0.1000
     17 C17        10.3860   99.5200   60.3090 C.ar      1 STI        -0.1414
     18 C16        11.4560   98.6100   60.0860 C.ar      1 STI         0.0698
     19 C15        12.4240   98.9210   59.0320 C.ar      1 STI        -0.1966
     20 N21        11.5160   97.4360   60.9230 N.am      1 STI        -0.4632
     21 C22        12.4460   96.4150   60.9100 C.2       1 STI         0.6752
     22 C23        12.4720   95.4420   62.0420 C.ar      1 STI        -0.1058
     23 C25        13.6890   94.6960   62.3640 C.ar      1 STI        -0.0831
     24 C26        13.6820   93.7490   63.4490 C.ar      1 STI        -0.1110
     25 C27        12.4630   93.5460   64.2140 C.ar      1 STI        -0.1579
     26 C28        11.2740   94.3010   63.8790 C.ar      1 STI        -0.1110
     27 C29        11.2720   95.2300   62.8170 C.ar      1 STI        -0.0831
     28 C46        12.3710   92.5420   65.3680 C.3       1 STI         0.1621
     29 N48        11.2300   91.5790   65.3640 N.4       1 STI        -0.6868
     30 C53        11.2140   90.7780   64.0930 C.3       1 STI         0.1066
     31 C52        10.0310   89.7760   64.0670 C.3       1 STI         0.1479
     32 N51        10.0810   88.8580   65.2780 N.3       1 STI        -0.7352
     33 C54         8.9850   87.8750   65.3060 C.3       1 STI         0.1502
     34 C50        10.0700   89.6590   66.5720 C.3       1 STI         0.1479
     35 C49        11.2730   90.6520   66.5740 C.3       1 STI         0.1066
     36 O29        13.2580   96.2310   60.0240 O.2       1 STI        -0.5585
     37 C20        10.9860  102.3510   57.6940 C.3       1 STI        -0.0516
     38 H11        16.4590  100.0740   49.5660 H         1 STI         0.2088
     39 H61        14.4410   99.3690   50.9640 H         1 STI         0.2060
     40 H41        16.1120  101.6720   54.3760 H         1 STI         0.2175
     41 H21        18.2430  101.5700   50.6470 H         1 STI         0.2131
     42 H121       12.5840   99.2390   52.1030 H         1 STI         0.1569
     43 H111       10.7560   98.7040   53.7960 H         1 STI         0.0540
     44 H131       14.2099  100.8239   57.5693 H         1 STI         0.4741
     45 H181        9.4110  101.4100   59.7190 H         1 STI         0.1499
     46 H171        9.6520   99.2900   61.1000 H         1 STI         0.1825
     47 H151       13.2680   98.2410   58.8240 H         1 STI         0.1365
     48 H211       10.7496   97.2709   61.6947 H         1 STI         0.3188
     49 H251       14.6160   94.8480   61.7860 H         1 STI         0.1701
     50 H261       14.5990   93.1860   63.6910 H         1 STI         0.1467
     51 H281       10.3400   94.1640   64.4500 H         1 STI         0.1467
     52 H291       10.3440   95.7830   62.5950 H         1 STI         0.1701
     53 H461       13.2755   91.9162   65.3825 H         1 STI         0.1081
     54 H462       12.2856   93.0852   66.3207 H         1 STI         0.1081
     55 H531       11.1140   91.4567   63.2331 H         1 STI         0.1086
     56 H532       12.1524   90.2108   64.0052 H         1 STI         0.1086
     57 H521        9.0808   90.3301   64.0787 H         1 STI         0.0731
     58 H522       10.0879   89.1651   63.1540 H         1 STI         0.0731
     59 H541        8.9897   87.2939   64.3720 H         1 STI         0.0594
     60 H542        8.0238   88.4004   65.4062 H         1 STI         0.0594
     61 H543        9.1228   87.1964   66.1607 H         1 STI         0.0594
     62 H501        9.1279   90.2218   66.6468 H         1 STI         0.0731
     63 H502       10.1567   88.9738   67.4281 H         1 STI         0.0731
     64 H491       12.2064   90.0701   66.5571 H         1 STI         0.1086
     65 H492       11.2306   91.2504   67.4960 H         1 STI         0.1086
     66 H201       11.7820  102.4551   56.9420 H         1 STI         0.0511
     67 H202       11.0194  103.2069   58.3841 H         1 STI         0.0511
     68 H203       10.0080  102.3232   57.1913 H         1 STI         0.0511
     69 H69        10.3106   92.1812   65.4089 H         1 STI         0.4520
     70 H70        18.0146  102.3005   52.9532 H         1 STI         0.5027
@<TRIPOS>BOND
     1    1    2 ar
     2    1    6 ar
     3    1   38 1
     4    2    3 ar
     5    2   39 1
     6    3    4 ar
     7    3    7 1
     8    4    5 ar
     9    4   40 1
    10    5    6 ar
    11    5   70 1
    12    6   41 1
    13    7    8 ar
    14    7   12 ar
    15    8    9 ar
    16    8   42 1
    17    9   10 ar
    18    9   43 1
    19   10   11 ar
    20   11   12 ar
    21   11   13 1
    22   13   14 1
    23   13   44 1
    24   14   15 ar
    25   14   19 ar
    26   15   16 ar
    27   15   37 1
    28   16   17 ar
    29   16   45 1
    30   17   18 ar
    31   17   46 1
    32   18   19 ar
    33   18   20 1
    34   19   47 1
    35   20   21 am
    36   20   48 1
    37   21   22 1
    38   21   36 2
    39   22   23 ar
    40   22   27 ar
    41   23   24 ar
    42   23   49 1
    43   24   25 ar
    44   24   50 1
    45   25   26 ar
    46   25   28 1
    47   26   27 ar
    48   26   51 1
    49   27   52 1
    50   28   29 1
    51   28   53 1
    52   28   54 1
    53   29   30 1
    54   29   35 1
    55   29   69 1
    56   30   31 1
    57   30   55 1
    58   30   56 1
    59   31   32 1
    60   31   57 1
    61   31   58 1
    62   32   33 1
    63   32   34 1
    64   33   59 1
    65   33   60 1
    66   33   61 1
    67   34   35 1
    68   34   62 1
    69   34   63 1
    70   35   64 1
    71   35   65 1
    72   37   66 1
    73   37   67 1
    74   37   68 1
@<TRIPOS>SUBSTRUCTURE
     1 STI         1 GROUP   0 A     ****
@<TRIPOS>MOLECULE
~{N}-[3-[[4-(1,2-dihydropyridin-2-ylium-3-yl)pyrimidin-2-yl]amino]-4-methyl-phenyl]-4-[(4-methylpiperazin-4-ium-1-yl)methyl]benzamide
   70    74     1     0     0
SMALL
USER_CHARGES

@<TRIPOS>ATOM
      1 C1         16.3560  100.4060   50.6140 C.ar      1 STI        -0.1305
      2 C6         15.2180  100.0120   51.4140 C.ar      1 STI         0.0083
      3 C5         15.0890  100.4530   52.7980 C.ar      1 STI        -0.1292
      4 C4         16.1380  101.2980   53.3390 C.cat     1 STI         0.0888
      5 N3         17.2200  101.6600   52.5430 N.pl3     1 STI        -0.4511
      6 C2         17.3560  101.2430   51.2150 C.ar      1 STI         0.0794
      7 C7         13.9280  100.0780   53.6730 C.ar      1 STI         0.4985
      8 C12        12.7230   99.4700   53.1730 C.ar      1 STI        -0.4109
      9 C11        11.7040   99.1720   54.1140 C.ar      1 STI         0.4847
     10 N10        11.8810   99.4640   55.4560 N.ar      1 STI        -0.6952
     11 C9         13.0530  100.0500   55.9070 C.ar      1 STI         0.9203
     12 N8         14.0460  100.3450   55.0230 N.ar      1 STI        -0.7840
     13 N13        13.2630  100.3620   57.2530 N.pl3     1 STI        -0.7267
     14 C14        12.3020  100.1090   58.2460 C.ar      1 STI         0.1495
     15 C19        11.1950  101.0400   58.4880 C.ar      1 STI        -0.0702
     16 C18        10.2510  100.7220   59.5240 C.ar      1 STI        -0.0987
     17 C17        10.3860   99.5200   60.3090 C.ar      1 STI        -0.1378
     18 C16        11.4560   98.6100   60.0860 C.ar      1 STI         0.0774
     19 C15        12.4240   98.9210   59.0320 C.ar      1 STI        -0.1964
     20 N21        11.5160   97.4360   60.9230 N.am      1 STI        -0.4702
     21 C22        12.4460   96.4150   60.9100 C.2       1 STI         0.6811
     22 C23        12.4720   95.4420   62.0420 C.ar      1 STI        -0.1339
     23 C25        13.6890   94.6960   62.3640 C.ar      1 STI        -0.0885
     24 C26        13.6820   93.7490   63.4490 C.ar      1 STI        -0.1225
     25 C27        12.4630   93.5460   64.2140 C.ar      1 STI        -0.0917
     26 C28        11.2740   94.3010   63.8790 C.ar      1 STI        -0.1225
     27 C29        11.2720   95.2300   62.8170 C.ar      1 STI        -0.0885
     28 C46        12.3710   92.5420   65.3680 C.3       1 STI         0.2224
     29 N48        11.2300   91.5790   65.3640 N.3       1 STI        -0.7524
     30 C53        11.2140   90.7780   64.0930 C.3       1 STI         0.1487
     31 C52        10.0310   89.7760   64.0670 C.3       1 STI         0.1072
     32 N51        10.0810   88.8580   65.2780 N.4       1 STI        -0.6844
     33 C54         8.9850   87.8750   65.3060 C.3       1 STI         0.0839
     34 C50        10.0700   89.6590   66.5720 C.3       1 STI         0.1072
     35 C49        11.2730   90.6520   66.5740 C.3       1 STI         0.1487
     36 O29        13.2580   96.2310   60.0240 O.2       1 STI        -0.5669
     37 C20        10.9860  102.3510   57.6940 C.3       1 STI        -0.0531
     38 H11        16.4590  100.0740   49.5660 H         1 STI         0.2092
     39 H61        14.4410   99.3690   50.9640 H         1 STI         0.2063
     40 H41        16.1120  101.6720   54.3760 H         1 STI         0.2169
     41 H21        18.2430  101.5700   50.6470 H         1 STI         0.2134
     42 H121       12.5840   99.2390   52.1030 H         1 STI         0.1553
     43 H111       10.7560   98.7040   53.7960 H         1 STI         0.0518
     44 H131       14.2099  100.8239   57.5693 H         1 STI         0.4623
     45 H181        9.4110  101.4100   59.7190 H         1 STI         0.1509
     46 H171        9.6520   99.2900   61.1000 H         1 STI         0.1836
     47 H151       13.2680   98.2410   58.8240 H         1 STI         0.1307
     48 H211       10.7496   97.2709   61.6947 H         1 STI         0.3177
     49 H251       14.6160   94.8480   61.7860 H         1 STI         0.1567
     50 H261       14.5990   93.1860   63.6910 H         1 STI         0.1441
     51 H281       10.3400   94.1640   64.4500 H         1 STI         0.1441
     52 H291       10.3440   95.7830   62.5950 H         1 STI         0.1567
     53 H461       13.2755   91.9162   65.3825 H         1 STI         0.0601
     54 H462       12.2856   93.0852   66.3207 H         1 STI         0.0601
     55 H531       11.1140   91.4567   63.2331 H         1 STI         0.0772
     56 H532       12.1524   90.2108   64.0052 H         1 STI         0.0772
     57 H521        9.0808   90.3301   64.0787 H         1 STI         0.1119
     58 H522       10.0879   89.1651   63.1540 H         1 STI         0.1119
     59 H541        8.9897   87.2939   64.3720 H         1 STI         0.1073
     60 H542        8.0238   88.4004   65.4062 H         1 STI         0.1073
     61 H543        9.1228   87.1964   66.1607 H         1 STI         0.1073
     62 H501        9.1279   90.2218   66.6468 H         1 STI         0.1119
     63 H502       10.1567   88.9738   67.4281 H         1 STI         0.1119
     64 H491       12.2064   90.0701   66.5571 H         1 STI         0.0772
     65 H492       11.2306   91.2504   67.4960 H         1 STI         0.0772
     66 H201       11.7820  102.4551   56.9420 H         1 STI         0.0514
     67 H202       11.0194  103.2069   58.3841 H         1 STI         0.0514
     68 H203       10.0080  102.3232   57.1913 H         1 STI         0.0514
     69 H69        11.0061   88.2695   65.1892 H         1 STI         0.4463
     70 H70        18.0146  102.3005   52.9532 H         1 STI         0.5004
@<TRIPOS>BOND
     1    1    2 ar
     2    1    6 ar
     3    1   38 1
     4    2    3 ar
     5    2   39 1
     6    3    4 ar
     7    3    7 1
     8    4    5 ar
     9    4   40 1
    10    5    6 ar
    11    5   70 1
    12    6   41 1
    13    7    8 ar
    14    7   12 ar
    15    8    9 ar
    16    8   42 1
    17    9   10 ar
    18    9   43 1
    19   10   11 ar
    20   11   12 ar
    21   11   13 1
    22   13   14 1
    23   13   44 1
    24   14   15 ar
    25   14   19 ar
    26   15   16 ar
    27   15   37 1
    28   16   17 ar
    29   16   45 1
    30   17   18 ar
    31   17   46 1
    32   18   19 ar
    33   18   20 1
    34   19   47 1
    35   20   21 am
    36   20   48 1
    37   21   22 1
    38   21   36 2
    39   22   23 ar
    40   22   27 ar
    41   23   24 ar
    42   23   49 1
    43   24   25 ar
    44   24   50 1
    45   25   26 ar
    46   25   28 1
    47   26   27 ar
    48   26   51 1
    49   27   52 1
    50   28   29 1
    51   28   53 1
    52   28   54 1
    53   29   30 1
    54   29   35 1
    55   30   31 1
    56   30   55 1
    57   30   56 1
    58   31   32 1
    59   31   57 1
    60   31   58 1
    61   32   33 1
    62   32   34 1
    63   32   69 1
    64   33   59 1
    65   33   60 1
    66   33   61 1
    67   34   35 1
    68   34   62 1
    69   34   63 1
    70   35   64 1
    71   35   65 1
    72   37   66 1
    73   37   67 1
    74   37   68 1
@<TRIPOS>SUBSTRUCTURE
     1 STI         1 GROUP   0 A     ****
