STI
                    3D
 Structure written by MMmdl.
 69 73  0  0  1  0            999 V2000
   16.3560  100.4060   50.6140 C   0  0  0  0  0  0
   15.2180  100.0120   51.4140 C   0  0  0  0  0  0
   15.0890  100.4530   52.7980 C   0  0  0  0  0  0
   16.1380  101.2980   53.3390 C   0  0  0  0  0  0
   17.2200  101.6600   52.5430 N   0  0  0  0  0  0
   17.3560  101.2430   51.2150 C   0  0  0  0  0  0
   13.9280  100.0780   53.6730 C   0  0  0  0  0  0
   12.7230   99.4700   53.1730 C   0  0  0  0  0  0
   11.7040   99.1720   54.1140 C   0  0  0  0  0  0
   11.8810   99.4640   55.4560 N   0  0  0  0  0  0
   13.0530  100.0500   55.9070 C   0  0  0  0  0  0
   14.0460  100.3450   55.0230 N   0  0  0  0  0  0
   13.2630  100.3620   57.2530 N   0  0  0  0  0  0
   12.3020  100.1090   58.2460 C   0  0  0  0  0  0
   11.1950  101.0400   58.4880 C   0  0  0  0  0  0
   10.2510  100.7220   59.5240 C   0  0  0  0  0  0
   10.3860   99.5200   60.3090 C   0  0  0  0  0  0
   11.4560   98.6100   60.0860 C   0  0  0  0  0  0
   12.4240   98.9210   59.0320 C   0  0  0  0  0  0
   11.5160   97.4360   60.9230 N   0  0  0  0  0  0
   12.4460   96.4150   60.9100 C   0  0  0  0  0  0
   12.4720   95.4420   62.0420 C   0  0  0  0  0  0
   13.6890   94.6960   62.3640 C   0  0  0  0  0  0
   13.6820   93.7490   63.4490 C   0  0  0  0  0  0
   12.4630   93.5460   64.2140 C   0  0  0  0  0  0
   11.2740   94.3010   63.8790 C   0  0  0  0  0  0
   11.2720   95.2300   62.8170 C   0  0  0  0  0  0
   12.3710   92.5420   65.3680 C   0  0  0  0  0  0
   11.2300   91.5790   65.3640 N   0  3  0  0  0  0
   11.2140   90.7780   64.0930 C   0  0  0  0  0  0
   10.0310   89.7760   64.0670 C   0  0  0  0  0  0
   10.0810   88.8580   65.2780 N   0  0  0  0  0  0
    8.9850   87.8750   65.3060 C   0  0  0  0  0  0
   10.0700   89.6590   66.5720 C   0  0  0  0  0  0
   11.2730   90.6520   66.5740 C   0  0  0  0  0  0
   13.2580   96.2310   60.0240 O   0  0  0  0  0  0
   10.9860  102.3510   57.6940 C   0  0  0  0  0  0
   16.4590  100.0740   49.5660 H   0  0  0  0  0  0
   14.4410   99.3690   50.9640 H   0  0  0  0  0  0
   16.1120  101.6720   54.3760 H   0  0  0  0  0  0
   18.2430  101.5700   50.6470 H   0  0  0  0  0  0
   12.5840   99.2390   52.1030 H   0  0  0  0  0  0
   10.7560   98.7040   53.7960 H   0  0  0  0  0  0
   14.2099  100.8239   57.5693 H   0  0  0  0  0  0
    9.4110  101.4100   59.7190 H   0  0  0  0  0  0
    9.6520   99.2900   61.1000 H   0  0  0  0  0  0
   13.2680   98.2410   58.8240 H   0  0  0  0  0  0
   10.7496   97.2709   61.6947 H   0  0  0  0  0  0
   14.6160   94.8480   61.7860 H   0  0  0  0  0  0
   14.5990   93.1860   63.6910 H   0  0  0  0  0  0
   10.3400   94.1640   64.4500 H   0  0  0  0  0  0
   10.3440   95.7830   62.5950 H   0  0  0  0  0  0
   13.2755   91.9162   65.3825 H   0  0  0  0  0  0
   12.2856   93.0852   66.3207 H   0  0  0  0  0  0
   11.1140   91.4567   63.2331 H   0  0  0  0  0  0
   12.1524   90.2108   64.0052 H   0  0  0  0  0  0
    9.0808   90.3301   64.0787 H   0  0  0  0  0  0
   10.0879   89.1651   63.1540 H   0  0  0  0  0  0
    8.9897   87.2939   64.3720 H   0  0  0  0  0  0
    8.0238   88.4004   65.4062 H   0  0  0  0  0  0
    9.1228   87.1964   66.1607 H   0  0  0  0  0  0
    9.1279   90.2218   66.6468 H   0  0  0  0  0  0
   10.1567   88.9738   67.4281 H   0  0  0  0  0  0
   12.2064   90.0701   66.5571 H   0  0  0  0  0  0
   11.2306   91.2504   67.4960 H   0  0  0  0  0  0
   11.7820  102.4551   56.9420 H   0  0  0  0  0  0
   11.0194  103.2069   58.3841 H   0  0  0  0  0  0
   10.0080  102.3232   57.1913 H   0  0  0  0  0  0
   10.3106   92.1812   65.4089 H   0  0  0  0  0  0
  1  2  2  0  0  0
  1  6  1  0  0  0
  1 38  1  0  0  0
  2  3  1  0  0  0
  2 39  1  0  0  0
  3  4  2  0  0  0
  3  7  1  0  0  0
  4  5  1  0  0  0
  4 40  1  0  0  0
  5  6  2  0  0  0
  6 41  1  0  0  0
  7  8  2  0  0  0
  7 12  1  0  0  0
  8  9  1  0  0  0
  8 42  1  0  0  0
  9 10  2  0  0  0
  9 43  1  0  0  0
 10 11  1  0  0  0
 11 12  2  0  0  0
 11 13  1  0  0  0
 13 14  1  0  0  0
 13 44  1  0  0  0
 14 15  2  0  0  0
 14 19  1  0  0  0
 15 16  1  0  0  0
 15 37  1  0  0  0
 16 17  2  0  0  0
 16 45  1  0  0  0
 17 18  1  0  0  0
 17 46  1  0  0  0
 18 19  2  0  0  0
 18 20  1  0  0  0
 19 47  1  0  0  0
 20 21  1  0  0  0
 20 48  1  0  0  0
 21 22  1  0  0  0
 21 36  2  0  0  0
 22 23  2  0  0  0
 22 27  1  0  0  0
 23 24  1  0  0  0
 23 49  1  0  0  0
 24 25  2  0  0  0
 24 50  1  0  0  0
 25 26  1  0  0  0
 25 28  1  0  0  0
 26 27  2  0  0  0
 26 51  1  0  0  0
 27 52  1  0  0  0
 28 29  1  0  0  0
 28 53  1  0  0  0
 28 54  1  0  0  0
 29 30  1  0  0  0
 29 35  1  0  0  0
 29 69  1  0  0  0
 30 31  1  0  0  0
 30 55  1  0  0  0
 30 56  1  0  0  0
 31 32  1  0  0  0
 31 57  1  0  0  0
 31 58  1  0  0  0
 32 33  1  0  0  0
 32 34  1  0  0  0
 33 59  1  0  0  0
 33 60  1  0  0  0
 33 61  1  0  0  0
 34 35  1  0  0  0
 34 62  1  0  0  0
 34 63  1  0  0  0
 35 64  1  0  0  0
 35 65  1  0  0  0
 37 66  1  0  0  0
 37 67  1  0  0  0
 37 68  1  0  0  0
M  CHG  1  29   1
M  END
> <s_m_source_file>
C:\GitHub\mcce-charges\epik_inhibitors\output-new\Imatinib\Imatinib-input.mol2

> <i_m_source_file_index>
1

> <r_lp_tautomer_probability>
0.999999987636

> <r_epik_Ionization_Penalty>
  0.0388

> <r_epik_Ionization_Penalty_Charging>
  0.0381

> <r_epik_Ionization_Penalty_Neutral>
  0.0007

> <r_epik_State_Penalty>
  0.2210

> <r_epik_Charging_Adjusted_Penalty>
0.259072115570253

> <i_epik_Tot_Q>
1

> <i_epik_Tot_abs_Q>
1

$$$$
STI
                    3D
 Structure written by MMmdl.
 69 73  0  0  1  0            999 V2000
   16.3560  100.4060   50.6140 C   0  0  0  0  0  0
   15.2180  100.0120   51.4140 C   0  0  0  0  0  0
   15.0890  100.4530   52.7980 C   0  0  0  0  0  0
   16.1380  101.2980   53.3390 C   0  0  0  0  0  0
   17.2200  101.6600   52.5430 N   0  0  0  0  0  0
   17.3560  101.2430   51.2150 C   0  0  0  0  0  0
   13.9280  100.0780   53.6730 C   0  0  0  0  0  0
   12.7230   99.4700   53.1730 C   0  0  0  0  0  0
   11.7040   99.1720   54.1140 C   0  0  0  0  0  0
   11.8810   99.4640   55.4560 N   0  0  0  0  0  0
   13.0530  100.0500   55.9070 C   0  0  0  0  0  0
   14.0460  100.3450   55.0230 N   0  0  0  0  0  0
   13.2630  100.3620   57.2530 N   0  0  0  0  0  0
   12.3020  100.1090   58.2460 C   0  0  0  0  0  0
   11.1950  101.0400   58.4880 C   0  0  0  0  0  0
   10.2510  100.7220   59.5240 C   0  0  0  0  0  0
   10.3860   99.5200   60.3090 C   0  0  0  0  0  0
   11.4560   98.6100   60.0860 C   0  0  0  0  0  0
   12.4240   98.9210   59.0320 C   0  0  0  0  0  0
   11.5160   97.4360   60.9230 N   0  0  0  0  0  0
   12.4460   96.4150   60.9100 C   0  0  0  0  0  0
   12.4720   95.4420   62.0420 C   0  0  0  0  0  0
   13.6890   94.6960   62.3640 C   0  0  0  0  0  0
   13.6820   93.7490   63.4490 C   0  0  0  0  0  0
   12.4630   93.5460   64.2140 C   0  0  0  0  0  0
   11.2740   94.3010   63.8790 C   0  0  0  0  0  0
   11.2720   95.2300   62.8170 C   0  0  0  0  0  0
   12.3710   92.5420   65.3680 C   0  0  0  0  0  0
   11.2300   91.5790   65.3640 N   0  0  0  0  0  0
   11.2140   90.7780   64.0930 C   0  0  0  0  0  0
   10.0310   89.7760   64.0670 C   0  0  0  0  0  0
   10.0810   88.8580   65.2780 N   0  3  0  0  0  0
    8.9850   87.8750   65.3060 C   0  0  0  0  0  0
   10.0700   89.6590   66.5720 C   0  0  0  0  0  0
   11.2730   90.6520   66.5740 C   0  0  0  0  0  0
   13.2580   96.2310   60.0240 O   0  0  0  0  0  0
   10.9860  102.3510   57.6940 C   0  0  0  0  0  0
   16.4590  100.0740   49.5660 H   0  0  0  0  0  0
   14.4410   99.3690   50.9640 H   0  0  0  0  0  0
   16.1120  101.6720   54.3760 H   0  0  0  0  0  0
   18.2430  101.5700   50.6470 H   0  0  0  0  0  0
   12.5840   99.2390   52.1030 H   0  0  0  0  0  0
   10.7560   98.7040   53.7960 H   0  0  0  0  0  0
   14.2099  100.8239   57.5693 H   0  0  0  0  0  0
    9.4110  101.4100   59.7190 H   0  0  0  0  0  0
    9.6520   99.2900   61.1000 H   0  0  0  0  0  0
   13.2680   98.2410   58.8240 H   0  0  0  0  0  0
   10.7496   97.2709   61.6947 H   0  0  0  0  0  0
   14.6160   94.8480   61.7860 H   0  0  0  0  0  0
   14.5990   93.1860   63.6910 H   0  0  0  0  0  0
   10.3400   94.1640   64.4500 H   0  0  0  0  0  0
   10.3440   95.7830   62.5950 H   0  0  0  0  0  0
   13.2755   91.9162   65.3825 H   0  0  0  0  0  0
   12.2856   93.0852   66.3207 H   0  0  0  0  0  0
   11.1140   91.4567   63.2331 H   0  0  0  0  0  0
   12.1524   90.2108   64.0052 H   0  0  0  0  0  0
    9.0808   90.3301   64.0787 H   0  0  0  0  0  0
   10.0879   89.1651   63.1540 H   0  0  0  0  0  0
    8.9897   87.2939   64.3720 H   0  0  0  0  0  0
    8.0238   88.4004   65.4062 H   0  0  0  0  0  0
    9.1228   87.1964   66.1607 H   0  0  0  0  0  0
    9.1279   90.2218   66.6468 H   0  0  0  0  0  0
   10.1567   88.9738   67.4281 H   0  0  0  0  0  0
   12.2064   90.0701   66.5571 H   0  0  0  0  0  0
   11.2306   91.2504   67.4960 H   0  0  0  0  0  0
   11.7820  102.4551   56.9420 H   0  0  0  0  0  0
   11.0194  103.2069   58.3841 H   0  0  0  0  0  0
   10.0080  102.3232   57.1913 H   0  0  0  0  0  0
   11.0061   88.2695   65.1892 H   0  0  0  0  0  0
  1  2  2  0  0  0
  1  6  1  0  0  0
  1 38  1  0  0  0
  2  3  1  0  0  0
  2 39  1  0  0  0
  3  4  2  0  0  0
  3  7  1  0  0  0
  4  5  1  0  0  0
  4 40  1  0  0  0
  5  6  2  0  0  0
  6 41  1  0  0  0
  7  8  2  0  0  0
  7 12  1  0  0  0
  8  9  1  0  0  0
  8 42  1  0  0  0
  9 10  2  0  0  0
  9 43  1  0  0  0
 10 11  1  0  0  0
 11 12  2  0  0  0
 11 13  1  0  0  0
 13 14  1  0  0  0
 13 44  1  0  0  0
 14 15  2  0  0  0
 14 19  1  0  0  0
 15 16  1  0  0  0
 15 37  1  0  0  0
 16 17  2  0  0  0
 16 45  1  0  0  0
 17 18  1  0  0  0
 17 46  1  0  0  0
 18 19  2  0  0  0
 18 20  1  0  0  0
 19 47  1  0  0  0
 20 21  1  0  0  0
 20 48  1  0  0  0
 21 22  1  0  0  0
 21 36  2  0  0  0
 22 23  2  0  0  0
 22 27  1  0  0  0
 23 24  1  0  0  0
 23 49  1  0  0  0
 24 25  2  0  0  0
 24 50  1  0  0  0
 25 26  1  0  0  0
 25 28  1  0  0  0
 26 27  2  0  0  0
 26 51  1  0  0  0
 27 52  1  0  0  0
 28 29  1  0  0  0
 28 53  1  0  0  0
 28 54  1  0  0  0
 29 30  1  0  0  0
 29 35  1  0  0  0
 30 31  1  0  0  0
 30 55  1  0  0  0
 30 56  1  0  0  0
 31 32  1  0  0  0
 31 57  1  0  0  0
 31 58  1  0  0  0
 32 33  1  0  0  0
 32 34  1  0  0  0
 32 69  1  0  0  0
 33 59  1  0  0  0
 33 60  1  0  0  0
 33 61  1  0  0  0
 34 35  1  0  0  0
 34 62  1  0  0  0
 34 63  1  0  0  0
 35 64  1  0  0  0
 35 65  1  0  0  0
 37 66  1  0  0  0
 37 67  1  0  0  0
 37 68  1  0  0  0
M  CHG  1  32   1
M  END
> <s_m_source_file>
C:\GitHub\mcce-charges\epik_inhibitors\output-new\Imatinib\Imatinib-input.mol2

> <i_m_source_file_index>
1

> <r_epik_Ionization_Penalty>
  0.1102

> <r_epik_Ionization_Penalty_Charging>
  0.0869

> <r_epik_Ionization_Penalty_Neutral>
  0.0234

> <r_epik_State_Penalty>
  0.7691

> <r_epik_Charging_Adjusted_Penalty>
0.855976300837431

> <i_epik_Tot_Q>
1

> <i_epik_Tot_abs_Q>
1

$$$$
STI
                    3D
 Structure written by MMmdl.
 68 72  0  0  1  0            999 V2000
   16.3560  100.4060   50.6140 C   0  0  0  0  0  0
   15.2180  100.0120   51.4140 C   0  0  0  0  0  0
   15.0890  100.4530   52.7980 C   0  0  0  0  0  0
   16.1380  101.2980   53.3390 C   0  0  0  0  0  0
   17.2200  101.6600   52.5430 N   0  0  0  0  0  0
   17.3560  101.2430   51.2150 C   0  0  0  0  0  0
   13.9280  100.0780   53.6730 C   0  0  0  0  0  0
   12.7230   99.4700   53.1730 C   0  0  0  0  0  0
   11.7040   99.1720   54.1140 C   0  0  0  0  0  0
   11.8810   99.4640   55.4560 N   0  0  0  0  0  0
   13.0530  100.0500   55.9070 C   0  0  0  0  0  0
   14.0460  100.3450   55.0230 N   0  0  0  0  0  0
   13.2630  100.3620   57.2530 N   0  0  0  0  0  0
   12.3020  100.1090   58.2460 C   0  0  0  0  0  0
   11.1950  101.0400   58.4880 C   0  0  0  0  0  0
   10.2510  100.7220   59.5240 C   0  0  0  0  0  0
   10.3860   99.5200   60.3090 C   0  0  0  0  0  0
   11.4560   98.6100   60.0860 C   0  0  0  0  0  0
   12.4240   98.9210   59.0320 C   0  0  0  0  0  0
   11.5160   97.4360   60.9230 N   0  0  0  0  0  0
   12.4460   96.4150   60.9100 C   0  0  0  0  0  0
   12.4720   95.4420   62.0420 C   0  0  0  0  0  0
   13.6890   94.6960   62.3640 C   0  0  0  0  0  0
   13.6820   93.7490   63.4490 C   0  0  0  0  0  0
   12.4630   93.5460   64.2140 C   0  0  0  0  0  0
   11.2740   94.3010   63.8790 C   0  0  0  0  0  0
   11.2720   95.2300   62.8170 C   0  0  0  0  0  0
   12.3710   92.5420   65.3680 C   0  0  0  0  0  0
   11.2300   91.5790   65.3640 N   0  0  0  0  0  0
   11.2140   90.7780   64.0930 C   0  0  0  0  0  0
   10.0310   89.7760   64.0670 C   0  0  0  0  0  0
   10.0810   88.8580   65.2780 N   0  0  0  0  0  0
    8.9850   87.8750   65.3060 C   0  0  0  0  0  0
   10.0700   89.6590   66.5720 C   0  0  0  0  0  0
   11.2730   90.6520   66.5740 C   0  0  0  0  0  0
   13.2580   96.2310   60.0240 O   0  0  0  0  0  0
   10.9860  102.3510   57.6940 C   0  0  0  0  0  0
   16.4590  100.0740   49.5660 H   0  0  0  0  0  0
   14.4410   99.3690   50.9640 H   0  0  0  0  0  0
   16.1120  101.6720   54.3760 H   0  0  0  0  0  0
   18.2430  101.5700   50.6470 H   0  0  0  0  0  0
   12.5840   99.2390   52.1030 H   0  0  0  0  0  0
   10.7560   98.7040   53.7960 H   0  0  0  0  0  0
   14.2099  100.8239   57.5693 H   0  0  0  0  0  0
    9.4110  101.4100   59.7190 H   0  0  0  0  0  0
    9.6520   99.2900   61.1000 H   0  0  0  0  0  0
   13.2680   98.2410   58.8240 H   0  0  0  0  0  0
   10.7496   97.2709   61.6947 H   0  0  0  0  0  0
   14.6160   94.8480   61.7860 H   0  0  0  0  0  0
   14.5990   93.1860   63.6910 H   0  0  0  0  0  0
   10.3400   94.1640   64.4500 H   0  0  0  0  0  0
   10.3440   95.7830   62.5950 H   0  0  0  0  0  0
   13.2755   91.9162   65.3825 H   0  0  0  0  0  0
   12.2856   93.0852   66.3207 H   0  0  0  0  0  0
   11.1140   91.4567   63.2331 H   0  0  0  0  0  0
   12.1524   90.2108   64.0052 H   0  0  0  0  0  0
    9.0808   90.3301   64.0787 H   0  0  0  0  0  0
   10.0879   89.1651   63.1540 H   0  0  0  0  0  0
    8.9897   87.2939   64.3720 H   0  0  0  0  0  0
    8.0238   88.4004   65.4062 H   0  0  0  0  0  0
    9.1228   87.1964   66.1607 H   0  0  0  0  0  0
    9.1279   90.2218   66.6468 H   0  0  0  0  0  0
   10.1567   88.9738   67.4281 H   0  0  0  0  0  0
   12.2064   90.0701   66.5571 H   0  0  0  0  0  0
   11.2306   91.2504   67.4960 H   0  0  0  0  0  0
   11.7820  102.4551   56.9420 H   0  0  0  0  0  0
   11.0194  103.2069   58.3841 H   0  0  0  0  0  0
   10.0080  102.3232   57.1913 H   0  0  0  0  0  0
  1  2  2  0  0  0
  1  6  1  0  0  0
  1 38  1  0  0  0
  2  3  1  0  0  0
  2 39  1  0  0  0
  3  4  2  0  0  0
  3  7  1  0  0  0
  4  5  1  0  0  0
  4 40  1  0  0  0
  5  6  2  0  0  0
  6 41  1  0  0  0
  7  8  2  0  0  0
  7 12  1  0  0  0
  8  9  1  0  0  0
  8 42  1  0  0  0
  9 10  2  0  0  0
  9 43  1  0  0  0
 10 11  1  0  0  0
 11 12  2  0  0  0
 11 13  1  0  0  0
 13 14  1  0  0  0
 13 44  1  0  0  0
 14 15  2  0  0  0
 14 19  1  0  0  0
 15 16  1  0  0  0
 15 37  1  0  0  0
 16 17  2  0  0  0
 16 45  1  0  0  0
 17 18  1  0  0  0
 17 46  1  0  0  0
 18 19  2  0  0  0
 18 20  1  0  0  0
 19 47  1  0  0  0
 20 21  1  0  0  0
 20 48  1  0  0  0
 21 22  1  0  0  0
 21 36  2  0  0  0
 22 23  2  0  0  0
 22 27  1  0  0  0
 23 24  1  0  0  0
 23 49  1  0  0  0
 24 25  2  0  0  0
 24 50  1  0  0  0
 25 26  1  0  0  0
 25 28  1  0  0  0
 26 27  2  0  0  0
 26 51  1  0  0  0
 27 52  1  0  0  0
 28 29  1  0  0  0
 28 53  1  0  0  0
 28 54  1  0  0  0
 29 30  1  0  0  0
 29 35  1  0  0  0
 30 31  1  0  0  0
 30 55  1  0  0  0
 30 56  1  0  0  0
 31 32  1  0  0  0
 31 57  1  0  0  0
 31 58  1  0  0  0
 32 33  1  0  0  0
 32 34  1  0  0  0
 33 59  1  0  0  0
 33 60  1  0  0  0
 33 61  1  0  0  0
 34 35  1  0  0  0
 34 62  1  0  0  0
 34 63  1  0  0  0
 35 64  1  0  0  0
 35 65  1  0  0  0
 37 66  1  0  0  0
 37 67  1  0  0  0
 37 68  1  0  0  0
M  END
> <s_m_source_file>
C:\GitHub\mcce-charges\epik_inhibitors\output-new\Imatinib\Imatinib-input.mol2

> <i_m_source_file_index>
1

> <r_lp_tautomer_probability>
0.999999987636

> <r_epik_Ionization_Penalty>
  2.8257

> <r_epik_Ionization_Penalty_Charging>
  0.0000

> <r_epik_Ionization_Penalty_Neutral>
  2.8257

> <r_epik_State_Penalty>
  1.9359

> <r_epik_Charging_Adjusted_Penalty>
1.93588537704094

> <i_epik_Tot_Q>
0

> <i_epik_Tot_abs_Q>
0

$$$$
STI
                    3D
 Structure written by MMmdl.
 70 74  0  0  1  0            999 V2000
   16.3560  100.4060   50.6140 C   0  0  0  0  0  0
   15.2180  100.0120   51.4140 C   0  0  0  0  0  0
   15.0890  100.4530   52.7980 C   0  0  0  0  0  0
   16.1380  101.2980   53.3390 C   0  0  0  0  0  0
   17.2200  101.6600   52.5430 N   0  3  0  0  0  0
   17.3560  101.2430   51.2150 C   0  0  0  0  0  0
   13.9280  100.0780   53.6730 C   0  0  0  0  0  0
   12.7230   99.4700   53.1730 C   0  0  0  0  0  0
   11.7040   99.1720   54.1140 C   0  0  0  0  0  0
   11.8810   99.4640   55.4560 N   0  0  0  0  0  0
   13.0530  100.0500   55.9070 C   0  0  0  0  0  0
   14.0460  100.3450   55.0230 N   0  0  0  0  0  0
   13.2630  100.3620   57.2530 N   0  0  0  0  0  0
   12.3020  100.1090   58.2460 C   0  0  0  0  0  0
   11.1950  101.0400   58.4880 C   0  0  0  0  0  0
   10.2510  100.7220   59.5240 C   0  0  0  0  0  0
   10.3860   99.5200   60.3090 C   0  0  0  0  0  0
   11.4560   98.6100   60.0860 C   0  0  0  0  0  0
   12.4240   98.9210   59.0320 C   0  0  0  0  0  0
   11.5160   97.4360   60.9230 N   0  0  0  0  0  0
   12.4460   96.4150   60.9100 C   0  0  0  0  0  0
   12.4720   95.4420   62.0420 C   0  0  0  0  0  0
   13.6890   94.6960   62.3640 C   0  0  0  0  0  0
   13.6820   93.7490   63.4490 C   0  0  0  0  0  0
   12.4630   93.5460   64.2140 C   0  0  0  0  0  0
   11.2740   94.3010   63.8790 C   0  0  0  0  0  0
   11.2720   95.2300   62.8170 C   0  0  0  0  0  0
   12.3710   92.5420   65.3680 C   0  0  0  0  0  0
   11.2300   91.5790   65.3640 N   0  3  0  0  0  0
   11.2140   90.7780   64.0930 C   0  0  0  0  0  0
   10.0310   89.7760   64.0670 C   0  0  0  0  0  0
   10.0810   88.8580   65.2780 N   0  0  0  0  0  0
    8.9850   87.8750   65.3060 C   0  0  0  0  0  0
   10.0700   89.6590   66.5720 C   0  0  0  0  0  0
   11.2730   90.6520   66.5740 C   0  0  0  0  0  0
   13.2580   96.2310   60.0240 O   0  0  0  0  0  0
   10.9860  102.3510   57.6940 C   0  0  0  0  0  0
   16.4590  100.0740   49.5660 H   0  0  0  0  0  0
   14.4410   99.3690   50.9640 H   0  0  0  0  0  0
   16.1120  101.6720   54.3760 H   0  0  0  0  0  0
   18.2430  101.5700   50.6470 H   0  0  0  0  0  0
   12.5840   99.2390   52.1030 H   0  0  0  0  0  0
   10.7560   98.7040   53.7960 H   0  0  0  0  0  0
   14.2099  100.8239   57.5693 H   0  0  0  0  0  0
    9.4110  101.4100   59.7190 H   0  0  0  0  0  0
    9.6520   99.2900   61.1000 H   0  0  0  0  0  0
   13.2680   98.2410   58.8240 H   0  0  0  0  0  0
   10.7496   97.2709   61.6947 H   0  0  0  0  0  0
   14.6160   94.8480   61.7860 H   0  0  0  0  0  0
   14.5990   93.1860   63.6910 H   0  0  0  0  0  0
   10.3400   94.1640   64.4500 H   0  0  0  0  0  0
   10.3440   95.7830   62.5950 H   0  0  0  0  0  0
   13.2755   91.9162   65.3825 H   0  0  0  0  0  0
   12.2856   93.0852   66.3207 H   0  0  0  0  0  0
   11.1140   91.4567   63.2331 H   0  0  0  0  0  0
   12.1524   90.2108   64.0052 H   0  0  0  0  0  0
    9.0808   90.3301   64.0787 H   0  0  0  0  0  0
   10.0879   89.1651   63.1540 H   0  0  0  0  0  0
    8.9897   87.2939   64.3720 H   0  0  0  0  0  0
    8.0238   88.4004   65.4062 H   0  0  0  0  0  0
    9.1228   87.1964   66.1607 H   0  0  0  0  0  0
    9.1279   90.2218   66.6468 H   0  0  0  0  0  0
   10.1567   88.9738   67.4281 H   0  0  0  0  0  0
   12.2064   90.0701   66.5571 H   0  0  0  0  0  0
   11.2306   91.2504   67.4960 H   0  0  0  0  0  0
   11.7820  102.4551   56.9420 H   0  0  0  0  0  0
   11.0194  103.2069   58.3841 H   0  0  0  0  0  0
   10.0080  102.3232   57.1913 H   0  0  0  0  0  0
   10.3106   92.1812   65.4089 H   0  0  0  0  0  0
   18.0146  102.3005   52.9532 H   0  0  0  0  0  0
  1  2  2  0  0  0
  1  6  1  0  0  0
  1 38  1  0  0  0
  2  3  1  0  0  0
  2 39  1  0  0  0
  3  4  2  0  0  0
  3  7  1  0  0  0
  4  5  1  0  0  0
  4 40  1  0  0  0
  5  6  2  0  0  0
  5 70  1  0  0  0
  6 41  1  0  0  0
  7  8  2  0  0  0
  7 12  1  0  0  0
  8  9  1  0  0  0
  8 42  1  0  0  0
  9 10  2  0  0  0
  9 43  1  0  0  0
 10 11  1  0  0  0
 11 12  2  0  0  0
 11 13  1  0  0  0
 13 14  1  0  0  0
 13 44  1  0  0  0
 14 15  2  0  0  0
 14 19  1  0  0  0
 15 16  1  0  0  0
 15 37  1  0  0  0
 16 17  2  0  0  0
 16 45  1  0  0  0
 17 18  1  0  0  0
 17 46  1  0  0  0
 18 19  2  0  0  0
 18 20  1  0  0  0
 19 47  1  0  0  0
 20 21  1  0  0  0
 20 48  1  0  0  0
 21 22  1  0  0  0
 21 36  2  0  0  0
 22 23  2  0  0  0
 22 27  1  0  0  0
 23 24  1  0  0  0
 23 49  1  0  0  0
 24 25  2  0  0  0
 24 50  1  0  0  0
 25 26  1  0  0  0
 25 28  1  0  0  0
 26 27  2  0  0  0
 26 51  1  0  0  0
 27 52  1  0  0  0
 28 29  1  0  0  0
 28 53  1  0  0  0
 28 54  1  0  0  0
 29 30  1  0  0  0
 29 35  1  0  0  0
 29 69  1  0  0  0
 30 31  1  0  0  0
 30 55  1  0  0  0
 30 56  1  0  0  0
 31 32  1  0  0  0
 31 57  1  0  0  0
 31 58  1  0  0  0
 32 33  1  0  0  0
 32 34  1  0  0  0
 33 59  1  0  0  0
 33 60  1  0  0  0
 33 61  1  0  0  0
 34 35  1  0  0  0
 34 62  1  0  0  0
 34 63  1  0  0  0
 35 64  1  0  0  0
 35 65  1  0  0  0
 37 66  1  0  0  0
 37 67  1  0  0  0
 37 68  1  0  0  0
M  CHG  2   5   1  29   1
M  END
> <s_m_source_file>
C:\GitHub\mcce-charges\epik_inhibitors\output-new\Imatinib\Imatinib-input.mol2

> <i_m_source_file_index>
1

> <r_lp_tautomer_probability>
0.999999987636

> <r_epik_Ionization_Penalty>
  4.8317

> <r_epik_Ionization_Penalty_Charging>
  4.8311

> <r_epik_Ionization_Penalty_Neutral>
  0.0005

> <r_epik_State_Penalty>
  5.3354

> <r_epik_Charging_Adjusted_Penalty>
10.1665201884677

> <i_epik_Tot_Q>
2

> <i_epik_Tot_abs_Q>
2

$$$$
STI
                    3D
 Structure written by MMmdl.
 70 74  0  0  1  0            999 V2000
   16.3560  100.4060   50.6140 C   0  0  0  0  0  0
   15.2180  100.0120   51.4140 C   0  0  0  0  0  0
   15.0890  100.4530   52.7980 C   0  0  0  0  0  0
   16.1380  101.2980   53.3390 C   0  0  0  0  0  0
   17.2200  101.6600   52.5430 N   0  3  0  0  0  0
   17.3560  101.2430   51.2150 C   0  0  0  0  0  0
   13.9280  100.0780   53.6730 C   0  0  0  0  0  0
   12.7230   99.4700   53.1730 C   0  0  0  0  0  0
   11.7040   99.1720   54.1140 C   0  0  0  0  0  0
   11.8810   99.4640   55.4560 N   0  0  0  0  0  0
   13.0530  100.0500   55.9070 C   0  0  0  0  0  0
   14.0460  100.3450   55.0230 N   0  0  0  0  0  0
   13.2630  100.3620   57.2530 N   0  0  0  0  0  0
   12.3020  100.1090   58.2460 C   0  0  0  0  0  0
   11.1950  101.0400   58.4880 C   0  0  0  0  0  0
   10.2510  100.7220   59.5240 C   0  0  0  0  0  0
   10.3860   99.5200   60.3090 C   0  0  0  0  0  0
   11.4560   98.6100   60.0860 C   0  0  0  0  0  0
   12.4240   98.9210   59.0320 C   0  0  0  0  0  0
   11.5160   97.4360   60.9230 N   0  0  0  0  0  0
   12.4460   96.4150   60.9100 C   0  0  0  0  0  0
   12.4720   95.4420   62.0420 C   0  0  0  0  0  0
   13.6890   94.6960   62.3640 C   0  0  0  0  0  0
   13.6820   93.7490   63.4490 C   0  0  0  0  0  0
   12.4630   93.5460   64.2140 C   0  0  0  0  0  0
   11.2740   94.3010   63.8790 C   0  0  0  0  0  0
   11.2720   95.2300   62.8170 C   0  0  0  0  0  0
   12.3710   92.5420   65.3680 C   0  0  0  0  0  0
   11.2300   91.5790   65.3640 N   0  0  0  0  0  0
   11.2140   90.7780   64.0930 C   0  0  0  0  0  0
   10.0310   89.7760   64.0670 C   0  0  0  0  0  0
   10.0810   88.8580   65.2780 N   0  3  0  0  0  0
    8.9850   87.8750   65.3060 C   0  0  0  0  0  0
   10.0700   89.6590   66.5720 C   0  0  0  0  0  0
   11.2730   90.6520   66.5740 C   0  0  0  0  0  0
   13.2580   96.2310   60.0240 O   0  0  0  0  0  0
   10.9860  102.3510   57.6940 C   0  0  0  0  0  0
   16.4590  100.0740   49.5660 H   0  0  0  0  0  0
   14.4410   99.3690   50.9640 H   0  0  0  0  0  0
   16.1120  101.6720   54.3760 H   0  0  0  0  0  0
   18.2430  101.5700   50.6470 H   0  0  0  0  0  0
   12.5840   99.2390   52.1030 H   0  0  0  0  0  0
   10.7560   98.7040   53.7960 H   0  0  0  0  0  0
   14.2099  100.8239   57.5693 H   0  0  0  0  0  0
    9.4110  101.4100   59.7190 H   0  0  0  0  0  0
    9.6520   99.2900   61.1000 H   0  0  0  0  0  0
   13.2680   98.2410   58.8240 H   0  0  0  0  0  0
   10.7496   97.2709   61.6947 H   0  0  0  0  0  0
   14.6160   94.8480   61.7860 H   0  0  0  0  0  0
   14.5990   93.1860   63.6910 H   0  0  0  0  0  0
   10.3400   94.1640   64.4500 H   0  0  0  0  0  0
   10.3440   95.7830   62.5950 H   0  0  0  0  0  0
   13.2755   91.9162   65.3825 H   0  0  0  0  0  0
   12.2856   93.0852   66.3207 H   0  0  0  0  0  0
   11.1140   91.4567   63.2331 H   0  0  0  0  0  0
   12.1524   90.2108   64.0052 H   0  0  0  0  0  0
    9.0808   90.3301   64.0787 H   0  0  0  0  0  0
   10.0879   89.1651   63.1540 H   0  0  0  0  0  0
    8.9897   87.2939   64.3720 H   0  0  0  0  0  0
    8.0238   88.4004   65.4062 H   0  0  0  0  0  0
    9.1228   87.1964   66.1607 H   0  0  0  0  0  0
    9.1279   90.2218   66.6468 H   0  0  0  0  0  0
   10.1567   88.9738   67.4281 H   0  0  0  0  0  0
   12.2064   90.0701   66.5571 H   0  0  0  0  0  0
   11.2306   91.2504   67.4960 H   0  0  0  0  0  0
   11.7820  102.4551   56.9420 H   0  0  0  0  0  0
   11.0194  103.2069   58.3841 H   0  0  0  0  0  0
   10.0080  102.3232   57.1913 H   0  0  0  0  0  0
   11.0061   88.2695   65.1892 H   0  0  0  0  0  0
   18.0146  102.3005   52.9532 H   0  0  0  0  0  0
  1  2  2  0  0  0
  1  6  1  0  0  0
  1 38  1  0  0  0
  2  3  1  0  0  0
  2 39  1  0  0  0
  3  4  2  0  0  0
  3  7  1  0  0  0
  4  5  1  0  0  0
  4 40  1  0  0  0
  5  6  2  0  0  0
  5 70  1  0  0  0
  6 41  1  0  0  0
  7  8  2  0  0  0
  7 12  1  0  0  0
  8  9  1  0  0  0
  8 42  1  0  0  0
  9 10  2  0  0  0
  9 43  1  0  0  0
 10 11  1  0  0  0
 11 12  2  0  0  0
 11 13  1  0  0  0
 13 14  1  0  0  0
 13 44  1  0  0  0
 14 15  2  0  0  0
 14 19  1  0  0  0
 15 16  1  0  0  0
 15 37  1  0  0  0
 16 17  2  0  0  0
 16 45  1  0  0  0
 17 18  1  0  0  0
 17 46  1  0  0  0
 18 19  2  0  0  0
 18 20  1  0  0  0
 19 47  1  0  0  0
 20 21  1  0  0  0
 20 48  1  0  0  0
 21 22  1  0  0  0
 21 36  2  0  0  0
 22 23  2  0  0  0
 22 27  1  0  0  0
 23 24  1  0  0  0
 23 49  1  0  0  0
 24 25  2  0  0  0
 24 50  1  0  0  0
 25 26  1  0  0  0
 25 28  1  0  0  0
 26 27  2  0  0  0
 26 51  1  0  0  0
 27 52  1  0  0  0
 28 29  1  0  0  0
 28 53  1  0  0  0
 28 54  1  0  0  0
 29 30  1  0  0  0
 29 35  1  0  0  0
 30 31  1  0  0  0
 30 55  1  0  0  0
 30 56  1  0  0  0
 31 32  1  0  0  0
 31 57  1  0  0  0
 31 58  1  0  0  0
 32 33  1  0  0  0
 32 34  1  0  0  0
 32 69  1  0  0  0
 33 59  1  0  0  0
 33 60  1  0  0  0
 33 61  1  0  0  0
 34 35  1  0  0  0
 34 62  1  0  0  0
 34 63  1  0  0  0
 35 64  1  0  0  0
 35 65  1  0  0  0
 37 66  1  0  0  0
 37 67  1  0  0  0
 37 68  1  0  0  0
M  CHG  2   5   1  32   1
M  END
> <s_m_source_file>
C:\GitHub\mcce-charges\epik_inhibitors\output-new\Imatinib\Imatinib-input.mol2

> <i_m_source_file_index>
1

> <r_epik_Ionization_Penalty>
  4.9031

> <r_epik_Ionization_Penalty_Charging>
  4.8799

> <r_epik_Ionization_Penalty_Neutral>
  0.0231

> <r_epik_State_Penalty>
  5.8835

> <r_epik_Charging_Adjusted_Penalty>
10.7634243737349

> <i_epik_Tot_Q>
2

> <i_epik_Tot_abs_Q>
2

$$$$
