032
  CCTOOLS-0721180819

 51 54  0  0  0  0  0  0  0  0999 V2000
    9.4540   -4.1760  -21.7350 C   0  0  0  0  0
    1.9340   -1.2310  -18.3570 C   0  0  0  0  0
    1.5160   -2.3160  -20.5970 C   0  0  0  0  0
   -0.8450   -3.0530  -20.4180 C   0  0  0  0  0
   -2.2070   -2.7780  -20.3740 C   0  0  0  0  0
   -2.6580   -1.4610  -20.4690 C   0  0  0  0  0
   -0.3870   -0.7200  -20.6490 C   0  0  0  0  0
    6.1300   -2.5620  -19.5770 C   0  0  0  0  0
    6.3090   -1.9530  -18.3330 C   0  0  0  0  0
    5.3540   -1.3930  -17.5580 N   0  0  0  0  0
    4.8250   -2.6070  -20.0890 C   0  0  0  0  0
    2.9990   -0.9880  -17.5350 N   0  0  0  0  0
    2.3650   -1.8860  -19.4910 C   0  0  0  0  0
    3.7810   -2.0440  -19.3350 C   0  0  0  0  0
    4.1330   -1.4740  -18.1140 C   0  0  0  0  0
    7.2690   -3.1240  -20.3170 C   0  0  0  0  0
    0.0730   -2.0290  -20.5490 C   0  0  0  0  0
   -1.7420   -0.4200  -20.6080 C   0  0  0  0  0
    0.4770    0.2870  -20.7820 F   0  0  0  0  0
   -0.4260   -4.3170  -20.3250 F   0  0  0  0  0
   -3.1160   -3.8770  -20.2300 N   0  0  0  0  0
   -4.8030   -3.5710  -20.1630 S   0  0  0  0  0
   -5.5100   -4.8280  -20.0310 O   0  0  0  0  0
   -5.2060   -2.5980  -21.1570 O   0  0  0  0  0
   -4.9970   -2.7740  -18.5710 C   0  0  0  0  0
   -5.0160   -3.7200  -17.3780 C   0  0  0  0  0
   -4.2770   -3.0960  -16.2050 C   0  0  0  0  0
    7.1460   -4.3190  -21.0470 C   0  0  0  0  0
    8.2320   -4.8460  -21.7510 C   0  0  0  0  0
    9.6030   -2.9860  -21.0240 C   0  0  0  0  0
    8.5140   -2.4650  -20.3230 C   0  0  0  0  0
   10.7950   -4.8200  -22.6010 CL  0  0  0  0  0
    0.9110   -0.9520  -18.1500 H   0  0  0  0  0
   -3.7160   -1.2490  -20.4350 H   0  0  0  0  0
    7.3180   -1.9270  -17.9490 H   0  0  0  0  0
    4.6260   -3.0660  -21.0460 H   0  0  0  0  0
   -2.0800    0.6030  -20.6830 H   0  0  0  0  0
   -2.9690   -4.4680  -21.0230 H   0  0  0  0  0
   -4.1510   -2.0840  -18.4370 H   0  0  0  0  0
   -5.9540   -2.2320  -18.5830 H   0  0  0  0  0
   -6.0580   -3.9160  -17.0870 H   0  0  0  0  0
   -4.5250   -4.6640  -17.6560 H   0  0  0  0  0
   -4.2970   -3.7870  -15.3490 H   0  0  0  0  0
   -3.2340   -2.8980  -16.4920 H   0  0  0  0  0
   -4.7660   -2.1510  -15.9250 H   0  0  0  0  0
    6.1990   -4.8370  -21.0640 H   0  0  0  0  0
    8.1250   -5.7670  -22.3040 H   0  0  0  0  0
   10.5530   -2.4720  -21.0160 H   0  0  0  0  0
    8.6280   -1.5410  -19.7760 H   0  0  0  0  0
    1.8630   -3.2730  -21.2700 O   0  0  0  0  0
    2.9530   -0.5270  -16.6490 H   0  0  0  0  0
  1 29  2  0  0  0
  1 30  1  0  0  0
  1 32  1  0  0  0
  2 12  1  0  0  0
  2 13  2  0  0  0
  2 33  1  0  0  0
  3 13  1  0  0  0
  3 17  1  0  0  0
  3 50  2  0  0  0
  4  5  2  0  0  0
  4 17  1  0  0  0
  4 20  1  0  0  0
  5  6  1  0  0  0
  5 21  1  0  0  0
  6 18  2  0  0  0
  6 34  1  0  0  0
  7 17  2  0  0  0
  7 18  1  0  0  0
  7 19  1  0  0  0
  8  9  2  0  0  0
  8 11  1  0  0  0
  8 16  1  0  0  0
  9 10  1  0  0  0
  9 35  1  0  0  0
 10 15  2  0  0  0
 11 14  2  0  0  0
 11 36  1  0  0  0
 12 15  1  0  0  0
 12 51  1  0  0  0
 13 14  1  0  0  0
 14 15  1  0  0  0
 16 28  2  0  0  0
 16 31  1  0  0  0
 18 37  1  0  0  0
 21 22  1  0  0  0
 21 38  1  0  0  0
 22 23  2  0  0  0
 22 24  2  0  0  0
 22 25  1  0  0  0
 25 26  1  0  0  0
 25 39  1  0  0  0
 25 40  1  0  0  0
 26 27  1  0  0  0
 26 41  1  0  0  0
 26 42  1  0  0  0
 27 43  1  0  0  0
 27 44  1  0  0  0
 27 45  1  0  0  0
 28 29  1  0  0  0
 28 46  1  0  0  0
 29 47  1  0  0  0
 30 31  2  0  0  0
 30 48  1  0  0  0
 31 49  1  0  0  0
M  END
$$$$
