@<TRIPOS>MOLECULE
[3-[5-(4-chlorophenyl)-1~{H}-pyrrolo[2,3-b]pyridine-3-carbonyl]-2,4-difluoro-phenyl]-propylsulfonyl-azanide
   50    53     1     0     0
SMALL
USER_CHARGES

@<TRIPOS>ATOM
      1 C10         9.4540   -4.1760  -21.7350 C.ar      1 032         0.0107
      2 C15         1.9340   -1.2310  -18.3570 C.ar      1 032         0.0790
      3 C17         1.5160   -2.3160  -20.5970 C.2       1 032         0.6328
      4 C20        -0.8450   -3.0530  -20.4180 C.ar      1 032         0.0819
      5 C21        -2.2070   -2.7780  -20.3740 C.ar      1 032         0.3594
      6 C22        -2.6580   -1.4610  -20.4690 C.ar      1 032        -0.2564
      7 C24        -0.3870   -0.7200  -20.6490 C.ar      1 032         0.0260
      8 C01         6.1300   -2.5620  -19.5770 C.ar      1 032        -0.1978
      9 C02         6.3090   -1.9530  -18.3330 C.ar      1 032         0.4184
     10 N03         5.3540   -1.3930  -17.5580 N.ar      1 032        -0.6792
     11 C04         4.8250   -2.6070  -20.0890 C.ar      1 032        -0.0203
     12 N14         2.9990   -0.9880  -17.5350 N.pl3     1 032        -0.6839
     13 C16         2.3650   -1.8860  -19.4910 C.ar      1 032        -0.1935
     14 C05         3.7810   -2.0440  -19.3350 C.ar      1 032        -0.1557
     15 C06         4.1330   -1.4740  -18.1140 C.ar      1 032         0.5438
     16 C07         7.2690   -3.1240  -20.3170 C.ar      1 032        -0.0072
     17 C18         0.0730   -2.0290  -20.5490 C.ar      1 032        -0.1916
     18 C23        -1.7420   -0.4200  -20.6080 C.ar      1 032        -0.1155
     19 F25         0.4770    0.2870  -20.7820 F         1 032        -0.1648
     20 F26        -0.4260   -4.3170  -20.3250 F         1 032        -0.1347
     21 N27        -3.1160   -3.8770  -20.2300 N.2       1 032        -0.8556
     22 S28        -4.8030   -3.5710  -20.1630 S.o2      1 032         1.5097
     23 O29        -5.5100   -4.8280  -20.0310 O.2       1 032        -0.7161
     24 O30        -5.2060   -2.5980  -21.1570 O.2       1 032        -0.7161
     25 C31        -4.9970   -2.7740  -18.5710 C.3       1 032        -0.2880
     26 C32        -5.0160   -3.7200  -17.3780 C.3       1 032        -0.0481
     27 C33        -4.2770   -3.0960  -16.2050 C.3       1 032        -0.0827
     28 C08         7.1460   -4.3190  -21.0470 C.ar      1 032        -0.1182
     29 C09         8.2320   -4.8460  -21.7510 C.ar      1 032        -0.1234
     30 C11         9.6030   -2.9860  -21.0240 C.ar      1 032        -0.1234
     31 C12         8.5140   -2.4650  -20.3230 C.ar      1 032        -0.1182
     32 CL13       10.7950   -4.8200  -22.6010 Cl        1 032        -0.1125
     33 H15         0.9110   -0.9520  -18.1500 H         1 032         0.1875
     34 H22        -3.7160   -1.2490  -20.4350 H         1 032         0.1334
     35 H02         7.3180   -1.9270  -17.9490 H         1 032         0.0158
     36 H04         4.6260   -3.0660  -21.0460 H         1 032         0.1662
     37 H23        -2.0800    0.6030  -20.6830 H         1 032         0.1259
     38 H31        -4.1634   -2.0753  -18.4067 H         1 032         0.0730
     39 H31A       -5.9479   -2.2214  -18.5510 H         1 032         0.0730
     40 H32        -6.0572   -3.9188  -17.0843 H         1 032         0.0520
     41 H32A       -4.5254   -4.6656  -17.6520 H         1 032         0.0520
     42 H33        -4.2969   -3.7872  -15.3495 H         1 032         0.0191
     43 H33A       -4.7657   -2.1513  -15.9245 H         1 032         0.0191
     44 H33B       -3.2338   -2.8981  -16.4923 H         1 032         0.0191
     45 H08         6.1990   -4.8370  -21.0640 H         1 032         0.1442
     46 H09         8.1250   -5.7670  -22.3040 H         1 032         0.1439
     47 H11        10.5530   -2.4720  -21.0160 H         1 032         0.1439
     48 H12         8.6280   -1.5410  -19.7760 H         1 032         0.1442
     49 O19         1.8630   -3.2730  -21.2700 O.2       1 032        -0.5338
     50 H18         2.8468   -0.4714  -16.5759 H         1 032         0.4625
@<TRIPOS>BOND
     1    1   29 ar
     2    1   30 ar
     3    1   32 1
     4    2   12 ar
     5    2   13 ar
     6    2   33 1
     7    3   13 1
     8    3   17 1
     9    3   49 2
    10    4    5 ar
    11    4   17 ar
    12    4   20 1
    13    5    6 ar
    14    5   21 1
    15    6   18 ar
    16    6   34 1
    17    7   17 ar
    18    7   18 ar
    19    7   19 1
    20    8    9 ar
    21    8   11 ar
    22    8   16 1
    23    9   10 ar
    24    9   35 1
    25   10   15 ar
    26   11   14 ar
    27   11   36 1
    28   12   15 ar
    29   12   50 1
    30   13   14 ar
    31   14   15 ar
    32   16   28 ar
    33   16   31 ar
    34   18   37 1
    35   21   22 1
    36   22   23 2
    37   22   24 2
    38   22   25 1
    39   25   26 1
    40   25   38 1
    41   25   39 1
    42   26   27 1
    43   26   40 1
    44   26   41 1
    45   27   42 1
    46   27   43 1
    47   27   44 1
    48   28   29 ar
    49   28   45 1
    50   29   46 1
    51   30   31 ar
    52   30   47 1
    53   31   48 1
@<TRIPOS>SUBSTRUCTURE
     1 032         1 GROUP   0 A     ****
@<TRIPOS>MOLECULE
~{N}-[3-[5-(4-chlorophenyl)-1~{H}-pyrrolo[2,3-b]pyridine-3-carbonyl]-2,4-difluoro-phenyl]propane-1-sulfonamide
   51    54     1     0     0
SMALL
USER_CHARGES

@<TRIPOS>ATOM
      1 C10         9.4540   -4.1760  -21.7350 C.ar      1 032         0.0190
      2 C15         1.9340   -1.2310  -18.3570 C.ar      1 032         0.0856
      3 C17         1.5160   -2.3160  -20.5970 C.2       1 032         0.6278
      4 C20        -0.8450   -3.0530  -20.4180 C.ar      1 032         0.1497
      5 C21        -2.2070   -2.7780  -20.3740 C.ar      1 032         0.1077
      6 C22        -2.6580   -1.4610  -20.4690 C.ar      1 032        -0.1355
      7 C24        -0.3870   -0.7200  -20.6490 C.ar      1 032         0.1452
      8 C01         6.1300   -2.5620  -19.5770 C.ar      1 032        -0.1697
      9 C02         6.3090   -1.9530  -18.3330 C.ar      1 032         0.4226
     10 N03         5.3540   -1.3930  -17.5580 N.ar      1 032        -0.6606
     11 C04         4.8250   -2.6070  -20.0890 C.ar      1 032        -0.0320
     12 N14         2.9990   -0.9880  -17.5350 N.pl3     1 032        -0.6638
     13 C16         2.3650   -1.8860  -19.4910 C.ar      1 032        -0.2254
     14 C05         3.7810   -2.0440  -19.3350 C.ar      1 032        -0.1537
     15 C06         4.1330   -1.4740  -18.1140 C.ar      1 032         0.5390
     16 C07         7.2690   -3.1240  -20.3170 C.ar      1 032        -0.0284
     17 C18         0.0730   -2.0290  -20.5490 C.ar      1 032        -0.2025
     18 C23        -1.7420   -0.4200  -20.6080 C.ar      1 032        -0.1547
     19 F25         0.4770    0.2870  -20.7820 F         1 032        -0.1260
     20 F26        -0.4260   -4.3170  -20.3250 F         1 032        -0.1183
     21 N27        -3.1160   -3.8770  -20.2300 N.pl3     1 032        -0.7673
     22 S28        -4.8030   -3.5710  -20.1630 S.o2      1 032         1.4619
     23 O29        -5.5100   -4.8280  -20.0310 O.2       1 032        -0.6431
     24 O30        -5.2060   -2.5980  -21.1570 O.2       1 032        -0.6431
     25 C31        -4.9970   -2.7740  -18.5710 C.3       1 032        -0.3355
     26 C32        -5.0160   -3.7200  -17.3780 C.3       1 032        -0.0513
     27 C33        -4.2770   -3.0960  -16.2050 C.3       1 032        -0.0894
     28 C08         7.1460   -4.3190  -21.0470 C.ar      1 032        -0.1125
     29 C09         8.2320   -4.8460  -21.7510 C.ar      1 032        -0.1225
     30 C11         9.6030   -2.9860  -21.0240 C.ar      1 032        -0.1225
     31 C12         8.5140   -2.4650  -20.3230 C.ar      1 032        -0.1125
     32 CL13       10.7950   -4.8200  -22.6010 Cl        1 032        -0.0950
     33 H15         0.9110   -0.9520  -18.1500 H         1 032         0.1778
     34 H22        -3.7160   -1.2490  -20.4350 H         1 032         0.1861
     35 H02         7.3180   -1.9270  -17.9490 H         1 032         0.0286
     36 H04         4.6260   -3.0660  -21.0460 H         1 032         0.1687
     37 H23        -2.0800    0.6030  -20.6830 H         1 032         0.1643
     38 HN27       -2.7411   -4.9089  -20.1626 H         1 032         0.4697
     39 H31        -4.1634   -2.0753  -18.4067 H         1 032         0.1173
     40 H31A       -5.9479   -2.2214  -18.5510 H         1 032         0.1173
     41 H32        -6.0572   -3.9188  -17.0843 H         1 032         0.0598
     42 H32A       -4.5254   -4.6656  -17.6520 H         1 032         0.0598
     43 H33        -4.2969   -3.7872  -15.3495 H         1 032         0.0394
     44 H33A       -4.7657   -2.1513  -15.9245 H         1 032         0.0394
     45 H33B       -3.2338   -2.8981  -16.4923 H         1 032         0.0394
     46 H08         6.1990   -4.8370  -21.0640 H         1 032         0.1419
     47 H09         8.1250   -5.7670  -22.3040 H         1 032         0.1496
     48 H11        10.5530   -2.4720  -21.0160 H         1 032         0.1496
     49 H12         8.6280   -1.5410  -19.7760 H         1 032         0.1419
     50 O19         1.8630   -3.2730  -21.2700 O.2       1 032        -0.5166
     51 H18         2.8468   -0.4714  -16.5759 H         1 032         0.4726
@<TRIPOS>BOND
     1    1   29 ar
     2    1   30 ar
     3    1   32 1
     4    2   12 ar
     5    2   13 ar
     6    2   33 1
     7    3   13 1
     8    3   17 1
     9    3   50 2
    10    4    5 ar
    11    4   17 ar
    12    4   20 1
    13    5    6 ar
    14    5   21 1
    15    6   18 ar
    16    6   34 1
    17    7   17 ar
    18    7   18 ar
    19    7   19 1
    20    8    9 ar
    21    8   11 ar
    22    8   16 1
    23    9   10 ar
    24    9   35 1
    25   10   15 ar
    26   11   14 ar
    27   11   36 1
    28   12   15 ar
    29   12   51 1
    30   13   14 ar
    31   14   15 ar
    32   16   28 ar
    33   16   31 ar
    34   18   37 1
    35   21   22 1
    36   21   38 1
    37   22   23 2
    38   22   24 2
    39   22   25 1
    40   25   26 1
    41   25   39 1
    42   25   40 1
    43   26   27 1
    44   26   41 1
    45   26   42 1
    46   27   43 1
    47   27   44 1
    48   27   45 1
    49   28   29 ar
    50   28   46 1
    51   29   47 1
    52   30   31 ar
    53   30   48 1
    54   31   49 1
@<TRIPOS>SUBSTRUCTURE
     1 032         1 GROUP   0 A     ****
@<TRIPOS>MOLECULE
[3-[5-(4-chlorophenyl)-1~{H}-pyrrolo[2,3-b]pyridin-7-ium-3-carbonyl]-2,4-difluoro-phenyl]-propylsulfonyl-azanide
   51    54     1     0     0
SMALL
USER_CHARGES

@<TRIPOS>ATOM
      1 C10         9.4540   -4.1760  -21.7350 C.ar      1 032         0.0406
      2 C15         1.9340   -1.2310  -18.3570 C.ar      1 032         0.1018
      3 C17         1.5160   -2.3160  -20.5970 C.2       1 032         0.6406
      4 C20        -0.8450   -3.0530  -20.4180 C.ar      1 032         0.0758
      5 C21        -2.2070   -2.7780  -20.3740 C.ar      1 032         0.3851
      6 C22        -2.6580   -1.4610  -20.4690 C.ar      1 032        -0.2571
      7 C24        -0.3870   -0.7200  -20.6490 C.ar      1 032        -0.0081
      8 C01         6.1300   -2.5620  -19.5770 C.ar      1 032        -0.0576
      9 C02         6.3090   -1.9530  -18.3330 C.ar      1 032        -0.0293
     10 N03         5.3540   -1.3930  -17.5580 N.ar      1 032        -0.1120
     11 C04         4.8250   -2.6070  -20.0890 C.ar      1 032         0.0536
     12 N14         2.9990   -0.9880  -17.5350 N.pl3     1 032        -0.5666
     13 C16         2.3650   -1.8860  -19.4910 C.ar      1 032        -0.1451
     14 C05         3.7810   -2.0440  -19.3350 C.ar      1 032        -0.0661
     15 C06         4.1330   -1.4740  -18.1140 C.ar      1 032         0.1278
     16 C07         7.2690   -3.1240  -20.3170 C.ar      1 032        -0.0772
     17 C18         0.0730   -2.0290  -20.5490 C.ar      1 032        -0.2072
     18 C23        -1.7420   -0.4200  -20.6080 C.ar      1 032        -0.0925
     19 F25         0.4770    0.2870  -20.7820 F         1 032        -0.1776
     20 F26        -0.4260   -4.3170  -20.3250 F         1 032        -0.1326
     21 N27        -3.1160   -3.8770  -20.2300 N.2       1 032        -0.8355
     22 S28        -4.8030   -3.5710  -20.1630 S.o2      1 032         1.5069
     23 O29        -5.5100   -4.8280  -20.0310 O.2       1 032        -0.6991
     24 O30        -5.2060   -2.5980  -21.1570 O.2       1 032        -0.6991
     25 C31        -4.9970   -2.7740  -18.5710 C.3       1 032        -0.2904
     26 C32        -5.0160   -3.7200  -17.3780 C.3       1 032        -0.0491
     27 C33        -4.2770   -3.0960  -16.2050 C.3       1 032        -0.0837
     28 C08         7.1460   -4.3190  -21.0470 C.ar      1 032        -0.0984
     29 C09         8.2320   -4.8460  -21.7510 C.ar      1 032        -0.1186
     30 C11         9.6030   -2.9860  -21.0240 C.ar      1 032        -0.1186
     31 C12         8.5140   -2.4650  -20.3230 C.ar      1 032        -0.0984
     32 CL13       10.7950   -4.8200  -22.6010 Cl        1 032        -0.0567
     33 H15         0.9110   -0.9520  -18.1500 H         1 032         0.2255
     34 H22        -3.7160   -1.2490  -20.4350 H         1 032         0.1433
     35 H02         7.3180   -1.9270  -17.9490 H         1 032         0.1955
     36 H04         4.6260   -3.0660  -21.0460 H         1 032         0.2134
     37 H23        -2.0800    0.6030  -20.6830 H         1 032         0.1333
     38 H31        -4.1634   -2.0753  -18.4067 H         1 032         0.0756
     39 H31A       -5.9479   -2.2214  -18.5510 H         1 032         0.0756
     40 H32        -6.0572   -3.9188  -17.0843 H         1 032         0.0549
     41 H32A       -4.5254   -4.6656  -17.6520 H         1 032         0.0549
     42 H33        -4.2969   -3.7872  -15.3495 H         1 032         0.0230
     43 H33A       -4.7657   -2.1513  -15.9245 H         1 032         0.0230
     44 H33B       -3.2338   -2.8981  -16.4923 H         1 032         0.0230
     45 H08         6.1990   -4.8370  -21.0640 H         1 032         0.1420
     46 H09         8.1250   -5.7670  -22.3040 H         1 032         0.1625
     47 H11        10.5530   -2.4720  -21.0160 H         1 032         0.1625
     48 H12         8.6280   -1.5410  -19.7760 H         1 032         0.1420
     49 O19         1.8630   -3.2730  -21.2700 O.2       1 032        -0.5143
     50 H18         2.8468   -0.4714  -16.5759 H         1 032         0.4825
     51 H51         5.6244   -0.9410  -16.5923 H         1 032         0.3260
@<TRIPOS>BOND
     1    1   29 ar
     2    1   30 ar
     3    1   32 1
     4    2   12 ar
     5    2   13 ar
     6    2   33 1
     7    3   13 1
     8    3   17 1
     9    3   49 2
    10    4    5 ar
    11    4   17 ar
    12    4   20 1
    13    5    6 ar
    14    5   21 1
    15    6   18 ar
    16    6   34 1
    17    7   17 ar
    18    7   18 ar
    19    7   19 1
    20    8    9 ar
    21    8   11 ar
    22    8   16 1
    23    9   10 ar
    24    9   35 1
    25   10   15 ar
    26   10   51 1
    27   11   14 ar
    28   11   36 1
    29   12   15 ar
    30   12   50 1
    31   13   14 ar
    32   14   15 ar
    33   16   28 ar
    34   16   31 ar
    35   18   37 1
    36   21   22 1
    37   22   23 2
    38   22   24 2
    39   22   25 1
    40   25   26 1
    41   25   38 1
    42   25   39 1
    43   26   27 1
    44   26   40 1
    45   26   41 1
    46   27   42 1
    47   27   43 1
    48   27   44 1
    49   28   29 ar
    50   28   45 1
    51   29   46 1
    52   30   31 ar
    53   30   47 1
    54   31   48 1
@<TRIPOS>SUBSTRUCTURE
     1 032         1 GROUP   0 A     ****
