@<TRIPOS>MOLECULE
1-[3-[4-amino-3-(4-phenoxyphenyl)pyrazolo[3,4-d]pyrimidin-1-yl]-1-piperidyl]prop-2-en-1-one
   57    61     1     0     0
SMALL
USER_CHARGES

@<TRIPOS>ATOM
      1 N1        -11.8970  -20.0640   96.2940 N.ar      1 1E8        -0.8043
      2 C2        -10.6990  -19.4910   95.8180 C.ar      1 1E8         0.6974
      3 N3        -10.6570  -18.0980   95.6680 N.ar      1 1E8        -0.7399
      4 C4        -11.7590  -17.3740   95.9760 C.ar      1 1E8         0.6071
      5 C5        -12.9000  -17.9400   96.4280 C.ar      1 1E8        -0.4996
      6 C6        -12.9520  -19.2850   96.5730 C.ar      1 1E8         0.7690
      7 CAA        -6.5230  -13.7940   91.5600 C.2       1 1E8        -0.1571
      8 NAB       -14.0740  -19.8500   97.0140 N.pl3     1 1E8        -0.9616
      9 OAC        -8.6180  -15.5710   92.3180 O.2       1 1E8        -0.5951
     10 CAD        -7.6890  -13.3480   92.4520 C.2       1 1E8        -0.2203
     11 CAE       -22.4630  -17.7170   97.5730 C.ar      1 1E8        -0.1310
     12 CAF       -22.0950  -16.3730   97.4670 C.ar      1 1E8        -0.1194
     13 CAG       -21.5800  -18.6410   98.1460 C.ar      1 1E8        -0.1194
     14 CAI       -20.8500  -15.9540   97.9330 C.ar      1 1E8        -0.1331
     15 CAJ       -20.3270  -18.2210   98.6090 C.ar      1 1E8        -0.1331
     16 CAK       -17.3290  -16.0750   97.0050 C.ar      1 1E8        -0.1413
     17 CAL       -16.4860  -17.1440   98.9750 C.ar      1 1E8        -0.1413
     18 CAM       -16.0580  -16.1840   96.4060 C.ar      1 1E8        -0.0989
     19 CAN       -15.2270  -17.2490   98.3800 C.ar      1 1E8        -0.0989
     20 CAO        -9.8380  -12.7580   95.6070 C.3       1 1E8        -0.0980
     21 CAP       -10.9480  -13.7250   96.1150 C.3       1 1E8        -0.0963
     22 CAQ        -9.8670  -12.6680   94.0780 C.3       1 1E8         0.0953
     23 CAR       -10.8340  -15.0040   93.9210 C.3       1 1E8         0.0771
     24 NAU       -13.0920  -15.7850   96.2780 N.ar      1 1E8        -0.4077
     25 OAV       -18.7500  -16.4530   98.9480 O.3       1 1E8        -0.2709
     26 CAW        -8.7370  -14.4310   92.7700 C.2       1 1E8         0.6599
     27 CAY       -19.9580  -16.8770   98.4810 C.ar      1 1E8         0.0867
     28 CAZ       -17.5510  -16.5680   98.2850 C.ar      1 1E8         0.0985
     29 CBA       -15.0000  -16.8080   97.0820 C.ar      1 1E8        -0.1157
     30 CBB       -13.7440  -16.8970   96.5950 C.ar      1 1E8         0.4166
     31 CBE       -10.8650  -15.1300   95.4450 C.3       1 1E8         0.2350
     32 NBF       -11.9470  -16.0570   95.9090 N.pl3     1 1E8        -0.3986
     33 NBG        -9.7800  -14.0360   93.5260 N.am      1 1E8        -0.4738
     34 H2         -9.8430  -20.1050   95.5770 H         1 1E8         0.0522
     35 HAA        -5.7335  -13.0780   91.2879 H         1 1E8         0.1248
     36 HAAA       -6.4765  -14.8298   91.1926 H         1 1E8         0.1248
     37 HNAB      -14.9491  -19.2258   97.2477 H         1 1E8         0.4464
     38 HNAA      -14.1259  -20.9410   97.1447 H         1 1E8         0.4464
     39 HAD        -7.7355  -12.3122   92.8194 H         1 1E8         0.1417
     40 HAE       -23.4280  -18.0430   97.2130 H         1 1E8         0.1345
     41 HAF       -22.7750  -15.6600   97.0240 H         1 1E8         0.1359
     42 HAG       -21.8660  -19.6790   98.2310 H         1 1E8         0.1359
     43 HAI       -20.5750  -14.9120   97.8700 H         1 1E8         0.1437
     44 HAJ       -19.6500  -18.9300   99.0620 H         1 1E8         0.1437
     45 HAK       -18.1370  -15.6040   96.4650 H         1 1E8         0.1485
     46 HAL       -16.6360  -17.5130   99.9790 H         1 1E8         0.1485
     47 HAM       -15.8970  -15.7830   95.4160 H         1 1E8         0.1488
     48 HAN       -14.4120  -17.6820   98.9410 H         1 1E8         0.1488
     49 HAO       -10.0043  -11.7555   96.0281 H         1 1E8         0.0538
     50 HAOA       -8.8532  -13.1307   95.9253 H         1 1E8         0.0538
     51 HAP       -10.8467  -13.8607   97.2019 H         1 1E8         0.0599
     52 HAPA      -11.9368  -13.2991   95.8892 H         1 1E8         0.0599
     53 HAQ       -10.8053  -12.1924   93.7564 H         1 1E8         0.0511
     54 HAQA       -9.0136  -12.0677   93.7298 H         1 1E8         0.0511
     55 HAR       -10.6153  -15.9860   93.4763 H         1 1E8         0.0830
     56 HARA      -11.8113  -14.6486   93.5625 H         1 1E8         0.0830
     57 HBE        -9.9360  -15.6248   95.7645 H         1 1E8         0.0927
@<TRIPOS>BOND
     1    1    6 ar
     2    1    2 ar
     3    2   34 1
     4    2    3 ar
     5    3    4 ar
     6    4    5 ar
     7    4   32 ar
     8    5    6 ar
     9    5   30 ar
    10    6    8 1
    11    7   10 2
    12    7   35 1
    13    7   36 1
    14    8   37 1
    15    8   38 1
    16    9   26 2
    17   10   26 1
    18   10   39 1
    19   11   13 ar
    20   11   40 1
    21   11   12 ar
    22   12   14 ar
    23   12   41 1
    24   13   15 ar
    25   13   42 1
    26   14   27 ar
    27   14   43 1
    28   15   44 1
    29   15   27 ar
    30   16   28 ar
    31   16   45 1
    32   16   18 ar
    33   17   46 1
    34   17   19 ar
    35   17   28 ar
    36   18   29 ar
    37   18   47 1
    38   19   48 1
    39   19   29 ar
    40   20   21 1
    41   20   49 1
    42   20   50 1
    43   20   22 1
    44   21   51 1
    45   21   52 1
    46   21   31 1
    47   22   53 1
    48   22   54 1
    49   22   33 1
    50   23   31 1
    51   23   55 1
    52   23   56 1
    53   23   33 1
    54   24   30 ar
    55   24   32 ar
    56   25   27 1
    57   25   28 1
    58   26   33 am
    59   29   30 1
    60   31   32 1
    61   31   57 1
@<TRIPOS>SUBSTRUCTURE
     1 1E8         1 GROUP   0 A     ****
@<TRIPOS>MOLECULE
1-[3-[4-amino-3-(4-phenoxyphenyl)-7~{H}-pyrazolo[3,4-d]pyrimidin-7~{a}-ylium-1-yl]-1-piperidyl]prop-2-en-1-one
   58    62     1     0     0
SMALL
USER_CHARGES

@<TRIPOS>ATOM
      1 N1        -11.8970  -20.0640   96.2940 N.ar      1 1E8        -0.6679
      2 C2        -10.6990  -19.4910   95.8180 C.ar      1 1E8         0.7260
      3 N3        -10.6570  -18.0980   95.6680 N.pl3     1 1E8        -0.6649
      4 C4        -11.7590  -17.3740   95.9760 C.cat     1 1E8         0.2688
      5 C5        -12.9000  -17.9400   96.4280 C.ar      1 1E8        -0.3722
      6 C6        -12.9520  -19.2850   96.5730 C.ar      1 1E8         0.5369
      7 CAA        -6.5230  -13.7940   91.5600 C.2       1 1E8        -0.1159
      8 NAB       -14.0740  -19.8500   97.0140 N.pl3     1 1E8        -0.7636
      9 OAC        -8.6180  -15.5710   92.3180 O.2       1 1E8        -0.5933
     10 CAD        -7.6890  -13.3480   92.4520 C.2       1 1E8        -0.2424
     11 CAE       -22.4630  -17.7170   97.5730 C.ar      1 1E8        -0.1189
     12 CAF       -22.0950  -16.3730   97.4670 C.ar      1 1E8        -0.1151
     13 CAG       -21.5800  -18.6410   98.1460 C.ar      1 1E8        -0.1151
     14 CAI       -20.8500  -15.9540   97.9330 C.ar      1 1E8        -0.1304
     15 CAJ       -20.3270  -18.2210   98.6090 C.ar      1 1E8        -0.1304
     16 CAK       -17.3290  -16.0750   97.0050 C.ar      1 1E8        -0.1351
     17 CAL       -16.4860  -17.1440   98.9750 C.ar      1 1E8        -0.1351
     18 CAM       -16.0580  -16.1840   96.4060 C.ar      1 1E8        -0.0977
     19 CAN       -15.2270  -17.2490   98.3800 C.ar      1 1E8        -0.0977
     20 CAO        -9.8380  -12.7580   95.6070 C.3       1 1E8        -0.1001
     21 CAP       -10.9480  -13.7250   96.1150 C.3       1 1E8        -0.0989
     22 CAQ        -9.8670  -12.6680   94.0780 C.3       1 1E8         0.0949
     23 CAR       -10.8340  -15.0040   93.9210 C.3       1 1E8         0.0974
     24 NAU       -13.0920  -15.7850   96.2780 N.ar      1 1E8        -0.3795
     25 OAV       -18.7500  -16.4530   98.9480 O.3       1 1E8        -0.2663
     26 CAW        -8.7370  -14.4310   92.7700 C.2       1 1E8         0.6691
     27 CAY       -19.9580  -16.8770   98.4810 C.ar      1 1E8         0.0696
     28 CAZ       -17.5510  -16.5680   98.2850 C.ar      1 1E8         0.1361
     29 CBA       -15.0000  -16.8080   97.0820 C.ar      1 1E8        -0.1729
     30 CBB       -13.7440  -16.8970   96.5950 C.ar      1 1E8         0.4916
     31 CBE       -10.8650  -15.1300   95.4450 C.3       1 1E8         0.2094
     32 NBF       -11.9470  -16.0570   95.9090 N.pl3     1 1E8        -0.2462
     33 NBG        -9.7800  -14.0360   93.5260 N.am      1 1E8        -0.4874
     34 H2         -9.8430  -20.1050   95.5770 H         1 1E8         0.1075
     35 HAA        -5.7335  -13.0780   91.2879 H         1 1E8         0.1361
     36 HAAA       -6.4765  -14.8298   91.1926 H         1 1E8         0.1361
     37 HNAB      -14.9491  -19.2258   97.2477 H         1 1E8         0.4839
     38 HNAA      -14.1259  -20.9410   97.1447 H         1 1E8         0.4839
     39 HAD        -7.7355  -12.3122   92.8194 H         1 1E8         0.1432
     40 HAE       -23.4280  -18.0430   97.2130 H         1 1E8         0.1442
     41 HAF       -22.7750  -15.6600   97.0240 H         1 1E8         0.1443
     42 HAG       -21.8660  -19.6790   98.2310 H         1 1E8         0.1443
     43 HAI       -20.5750  -14.9120   97.8700 H         1 1E8         0.1427
     44 HAJ       -19.6500  -18.9300   99.0620 H         1 1E8         0.1427
     45 HAK       -18.1370  -15.6040   96.4650 H         1 1E8         0.1647
     46 HAL       -16.6360  -17.5130   99.9790 H         1 1E8         0.1647
     47 HAM       -15.8970  -15.7830   95.4160 H         1 1E8         0.1472
     48 HAN       -14.4120  -17.6820   98.9410 H         1 1E8         0.1472
     49 HAO       -10.0043  -11.7555   96.0281 H         1 1E8         0.0655
     50 HAOA       -8.8532  -13.1307   95.9253 H         1 1E8         0.0655
     51 HAP       -10.8467  -13.8607   97.2019 H         1 1E8         0.0491
     52 HAPA      -11.9368  -13.2991   95.8892 H         1 1E8         0.0491
     53 HAQ       -10.8053  -12.1924   93.7564 H         1 1E8         0.0629
     54 HAQA       -9.0136  -12.0677   93.7298 H         1 1E8         0.0629
     55 HAR       -10.6153  -15.9860   93.4763 H         1 1E8         0.0911
     56 HARA      -11.8113  -14.6486   93.5625 H         1 1E8         0.0911
     57 HBE        -9.9360  -15.6248   95.7645 H         1 1E8         0.0851
     58 H58        -9.7396  -17.6113   95.3055 H         1 1E8         0.4922
@<TRIPOS>BOND
     1    1    6 ar
     2    1    2 ar
     3    2   34 1
     4    2    3 ar
     5    3    4 ar
     6    3   58 1
     7    4    5 ar
     8    4   32 ar
     9    5    6 ar
    10    5   30 ar
    11    6    8 1
    12    7   10 2
    13    7   35 1
    14    7   36 1
    15    8   37 1
    16    8   38 1
    17    9   26 2
    18   10   26 1
    19   10   39 1
    20   11   13 ar
    21   11   40 1
    22   11   12 ar
    23   12   14 ar
    24   12   41 1
    25   13   15 ar
    26   13   42 1
    27   14   27 ar
    28   14   43 1
    29   15   44 1
    30   15   27 ar
    31   16   28 ar
    32   16   45 1
    33   16   18 ar
    34   17   46 1
    35   17   19 ar
    36   17   28 ar
    37   18   29 ar
    38   18   47 1
    39   19   48 1
    40   19   29 ar
    41   20   21 1
    42   20   49 1
    43   20   50 1
    44   20   22 1
    45   21   51 1
    46   21   52 1
    47   21   31 1
    48   22   53 1
    49   22   54 1
    50   22   33 1
    51   23   31 1
    52   23   55 1
    53   23   56 1
    54   23   33 1
    55   24   30 ar
    56   24   32 ar
    57   25   27 1
    58   25   28 1
    59   26   33 am
    60   29   30 1
    61   31   32 1
    62   31   57 1
@<TRIPOS>SUBSTRUCTURE
     1 1E8         1 GROUP   0 A     ****
