1E8
                    3D
 Structure written by MMmdl.
 57 61  0  0  1  0            999 V2000
  -11.8970  -20.0640   96.2940 N   0  0  0  0  0  0
  -10.6990  -19.4910   95.8180 C   0  0  0  0  0  0
  -10.6570  -18.0980   95.6680 N   0  0  0  0  0  0
  -11.7590  -17.3740   95.9760 C   0  0  0  0  0  0
  -12.9000  -17.9400   96.4280 C   0  0  0  0  0  0
  -12.9520  -19.2850   96.5730 C   0  0  0  0  0  0
   -6.5230  -13.7940   91.5600 C   0  0  0  0  0  0
  -14.0740  -19.8500   97.0140 N   0  0  0  0  0  0
   -8.6180  -15.5710   92.3180 O   0  0  0  0  0  0
   -7.6890  -13.3480   92.4520 C   0  0  0  0  0  0
  -22.4630  -17.7170   97.5730 C   0  0  0  0  0  0
  -22.0950  -16.3730   97.4670 C   0  0  0  0  0  0
  -21.5800  -18.6410   98.1460 C   0  0  0  0  0  0
  -20.8500  -15.9540   97.9330 C   0  0  0  0  0  0
  -20.3270  -18.2210   98.6090 C   0  0  0  0  0  0
  -17.3290  -16.0750   97.0050 C   0  0  0  0  0  0
  -16.4860  -17.1440   98.9750 C   0  0  0  0  0  0
  -16.0580  -16.1840   96.4060 C   0  0  0  0  0  0
  -15.2270  -17.2490   98.3800 C   0  0  0  0  0  0
   -9.8380  -12.7580   95.6070 C   0  0  0  0  0  0
  -10.9480  -13.7250   96.1150 C   0  0  0  0  0  0
   -9.8670  -12.6680   94.0780 C   0  0  0  0  0  0
  -10.8340  -15.0040   93.9210 C   0  0  0  0  0  0
  -13.0920  -15.7850   96.2780 N   0  0  0  0  0  0
  -18.7500  -16.4530   98.9480 O   0  0  0  0  0  0
   -8.7370  -14.4310   92.7700 C   0  0  0  0  0  0
  -19.9580  -16.8770   98.4810 C   0  0  0  0  0  0
  -17.5510  -16.5680   98.2850 C   0  0  0  0  0  0
  -15.0000  -16.8080   97.0820 C   0  0  0  0  0  0
  -13.7440  -16.8970   96.5950 C   0  0  0  0  0  0
  -10.8650  -15.1300   95.4450 C   0  0  2  0  0  0
  -11.9470  -16.0570   95.9090 N   0  0  0  0  0  0
   -9.7800  -14.0360   93.5260 N   0  0  0  0  0  0
   -9.8430  -20.1050   95.5770 H   0  0  0  0  0  0
   -5.7335  -13.0780   91.2879 H   0  0  0  0  0  0
   -6.4765  -14.8298   91.1926 H   0  0  0  0  0  0
  -14.9491  -19.2258   97.2477 H   0  0  0  0  0  0
  -14.1259  -20.9410   97.1447 H   0  0  0  0  0  0
   -7.7355  -12.3122   92.8194 H   0  0  0  0  0  0
  -23.4280  -18.0430   97.2130 H   0  0  0  0  0  0
  -22.7750  -15.6600   97.0240 H   0  0  0  0  0  0
  -21.8660  -19.6790   98.2310 H   0  0  0  0  0  0
  -20.5750  -14.9120   97.8700 H   0  0  0  0  0  0
  -19.6500  -18.9300   99.0620 H   0  0  0  0  0  0
  -18.1370  -15.6040   96.4650 H   0  0  0  0  0  0
  -16.6360  -17.5130   99.9790 H   0  0  0  0  0  0
  -15.8970  -15.7830   95.4160 H   0  0  0  0  0  0
  -14.4120  -17.6820   98.9410 H   0  0  0  0  0  0
  -10.0043  -11.7555   96.0281 H   0  0  0  0  0  0
   -8.8532  -13.1307   95.9253 H   0  0  0  0  0  0
  -10.8467  -13.8607   97.2019 H   0  0  0  0  0  0
  -11.9368  -13.2991   95.8892 H   0  0  0  0  0  0
  -10.8053  -12.1924   93.7564 H   0  0  0  0  0  0
   -9.0136  -12.0677   93.7298 H   0  0  0  0  0  0
  -10.6153  -15.9860   93.4763 H   0  0  0  0  0  0
  -11.8113  -14.6486   93.5625 H   0  0  0  0  0  0
   -9.9360  -15.6248   95.7645 H   0  0  0  0  0  0
  1  6  2  0  0  0
  1  2  1  0  0  0
  2 34  1  0  0  0
  2  3  2  0  0  0
  3  4  1  0  0  0
  4  5  2  0  0  0
  4 32  1  0  0  0
  5  6  1  0  0  0
  5 30  1  0  0  0
  6  8  1  0  0  0
  7 10  2  0  0  0
  7 35  1  0  0  0
  7 36  1  0  0  0
  8 37  1  0  0  0
  8 38  1  0  0  0
  9 26  2  0  0  0
 10 26  1  0  0  0
 10 39  1  0  0  0
 11 13  2  0  0  0
 11 40  1  0  0  0
 11 12  1  0  0  0
 12 14  2  0  0  0
 12 41  1  0  0  0
 13 15  1  0  0  0
 13 42  1  0  0  0
 14 27  1  0  0  0
 14 43  1  0  0  0
 15 44  1  0  0  0
 15 27  2  0  0  0
 16 28  2  0  0  0
 16 45  1  0  0  0
 16 18  1  0  0  0
 17 46  1  0  0  0
 17 19  2  0  0  0
 17 28  1  0  0  0
 18 29  2  0  0  0
 18 47  1  0  0  0
 19 48  1  0  0  0
 19 29  1  0  0  0
 20 21  1  0  0  0
 20 49  1  0  0  0
 20 50  1  0  0  0
 20 22  1  0  0  0
 21 51  1  0  0  0
 21 52  1  0  0  0
 21 31  1  0  0  0
 22 53  1  0  0  0
 22 54  1  0  0  0
 22 33  1  0  0  0
 23 31  1  0  0  0
 23 55  1  0  0  0
 23 56  1  0  0  0
 23 33  1  0  0  0
 24 30  2  0  0  0
 24 32  1  0  0  0
 25 27  1  0  0  0
 25 28  1  0  0  0
 26 33  1  0  0  0
 29 30  1  0  0  0
 31 32  1  0  0  0
 31 57  1  0  0  0
M  END
> <s_m_source_file>
/Users/choderaj/github/choderalab/mcce-charges/mcce-charges.jchodera/epik_inhibitors/output/Ibrutinib/Ibrutinib-input.mol2

> <i_m_source_file_index>
1

> <r_lp_tautomer_probability>
1

> <r_epik_Ionization_Penalty>
  0.0509

> <r_epik_Ionization_Penalty_Charging>
  0.0000

> <r_epik_Ionization_Penalty_Neutral>
  0.0509

> <r_epik_State_Penalty>
  0.0434

> <i_epik_Tot_Q>
0

$$$$
