@<TRIPOS>MOLECULE
1-[(3~{R})-3-[4-amino-3-(4-phenoxyphenyl)pyrazolo[3,4-d]pyrimidin-1-yl]-1-piperidyl]prop-2-en-1-one
57   61    1
SMALL
USER_CHARGES


@<TRIPOS>ATOM
      1 C1         -0.6639    3.6948   -1.2576 C.2       1 IBR        -0.1563 
      2 C2         -0.2068    2.5735   -0.6963 C.2       1 IBR        -0.2198 
      3 C3         -1.0751    1.3796   -0.6784 C.2       1 IBR         0.6572 
      4 O1         -2.2932    1.5610   -0.6386 O.2       1 IBR        -0.5974 
      5 N1         -0.4607    0.1313   -0.7010 N.am      1 IBR        -0.4709 
      6 C4         -1.2864   -1.0783   -0.6907 C.3       1 IBR         0.0938 
      7 C5         -0.9264   -1.9593    0.5039 C.3       1 IBR        -0.0996 
      8 C6          0.5722   -2.2697    0.5383 C.3       1 IBR        -0.1009 
      9 C7          1.4080   -0.9758    0.4672 C.3       1 IBR         0.2410 
     10 H1          1.2239   -0.3859    1.3772 H         1 IBR         0.0798 
     11 C8          0.9856   -0.1329   -0.7484 C.3       1 IBR         0.0808 
     12 N2          2.8968   -1.2639    0.4716 N.pl3     1 IBR        -0.4004 
     13 C9          3.8099   -0.8372    1.3894 C.ar      1 IBR         0.6068 
     14 C10         5.0300   -1.3448    0.9787 C.ar      1 IBR        -0.5012 
     15 C11         4.7299   -2.0597   -0.1958 C.ar      1 IBR         0.4203 
     16 N3          3.4307   -2.0140   -0.5103 N.2       1 IBR        -0.4085 
     17 C12         5.6443   -2.7920   -1.0352 C.ar      1 IBR        -0.1311 
     18 C13         6.2822   -2.1508   -2.0971 C.ar      1 IBR        -0.0890 
     19 C14         7.1675   -2.8596   -2.9093 C.ar      1 IBR        -0.1577 
     20 C15         7.4148   -4.2094   -2.6596 C.ar      1 IBR         0.1068 
     21 C16         6.7768   -4.8506   -1.5977 C.ar      1 IBR        -0.1577 
     22 C17         5.8916   -4.1418   -0.7855 C.ar      1 IBR        -0.0890 
     23 O2          8.2786   -4.9009   -3.4523 O.3       1 IBR        -0.2520 
     24 C18         9.2022   -5.7253   -2.8318 C.ar      1 IBR         0.0911 
     25 C19         9.4264   -7.0127   -3.3198 C.ar      1 IBR        -0.1482 
     26 C20        10.3568   -7.8432   -2.6951 C.ar      1 IBR        -0.1123 
     27 C21        11.0630   -7.3863   -1.5823 C.ar      1 IBR        -0.1428 
     28 C22        10.8387   -6.0989   -1.0943 C.ar      1 IBR        -0.1123 
     29 C23         9.9083   -5.2685   -1.7191 C.ar      1 IBR        -0.1482 
     30 C24         6.1372   -1.0430    1.7646 C.ar      1 IBR         0.7705 
     31 N4          5.9709   -0.2811    2.8723 N.ar      1 IBR        -0.8030 
     32 C25         4.7171    0.1476    3.1528 C.ar      1 IBR         0.6966 
     33 N5          3.5732   -0.0788    2.4715 N.ar      1 IBR        -0.7451 
     34 N6          7.4200   -1.5139    1.4310 N.pl3     1 IBR        -0.9643 
     35 H2         -0.0324    4.5952   -1.2811 H         1 IBR         0.1245 
     36 H3         -1.6722    3.7186   -1.6968 H         1 IBR         0.1245 
     37 H4          0.8015    2.5497   -0.2571 H         1 IBR         0.1434 
     38 H5         -2.3476   -0.7972   -0.6213 H         1 IBR         0.0515 
     39 H6         -1.1172   -1.6457   -1.6178 H         1 IBR         0.0515 
     40 H7         -1.1968   -1.4416    1.4360 H         1 IBR         0.0541 
     41 H8         -1.4779   -2.9088    0.4386 H         1 IBR         0.0541 
     42 H9          0.8163   -2.7957    1.4731 H         1 IBR         0.0648 
     43 H10         0.8347   -2.9060   -0.3197 H         1 IBR         0.0648 
     44 H11         1.2281   -0.6816   -1.6704 H         1 IBR         0.0846 
     45 H12         1.5333    0.8210   -0.7346 H         1 IBR         0.0846 
     46 H13         6.0997   -1.0992   -2.3052 H         1 IBR         0.1484 
     47 H14         7.6621   -2.3547   -3.7345 H         1 IBR         0.1543 
     48 H15         6.9650   -5.9021   -1.3984 H         1 IBR         0.1543 
     49 H16         5.4028   -4.6557    0.0389 H         1 IBR         0.1484 
     50 H17         8.8800   -7.3739   -4.1868 H         1 IBR         0.1502 
     51 H18        10.5322   -8.8452   -3.0755 H         1 IBR         0.1364 
     52 H19        11.7886   -8.0321   -1.0968 H         1 IBR         0.1349 
     53 H20        11.3893   -5.7432   -0.2281 H         1 IBR         0.1364 
     54 H21         9.7378   -4.2668   -1.3342 H         1 IBR         0.1502 
     55 H22         4.6188    0.7534    4.0473 H         1 IBR         0.0515 
     56 H23         8.2810   -1.2624    2.0677 H         1 IBR         0.4478 
     57 H24         7.5622   -2.1337    0.5334 H         1 IBR         0.4478 
@<TRIPOS>BOND
     1    1    2 2    
     2    1   35 1    
     3    1   36 1    
     4    2    3 1    
     5    2   37 1    
     6    3    4 2    
     7    3    5 am   BACKBONE|DICT|INTERRES
     8    5   11 1    
     9    5    6 1    
    10    6    7 1    
    11    6   38 1    
    12    6   39 1    
    13    7    8 1    
    14    7   40 1    
    15    7   41 1    
    16    8    9 1    
    17    8   42 1    
    18    8   43 1    
    19    9   10 1    
    20    9   11 1    
    21    9   12 1    
    22   11   44 1    
    23   11   45 1    
    24   12   16 ar   
    25   12   13 ar   
    26   13   33 ar   
    27   13   14 ar   
    28   14   15 ar   
    29   14   30 ar   
    30   15   16 ar   
    31   15   17 1    
    32   17   22 ar   
    33   17   18 ar   
    34   18   19 ar   
    35   18   46 1    
    36   19   20 ar   
    37   19   47 1    
    38   20   21 ar   
    39   20   23 1    
    40   21   22 ar   
    41   21   48 1    
    42   22   49 1    
    43   23   24 1    
    44   24   29 ar   
    45   24   25 ar   
    46   25   26 ar   
    47   25   50 1    
    48   26   27 ar   
    49   26   51 1    
    50   27   28 ar   
    51   27   52 1    
    52   28   29 ar   
    53   28   53 1    
    54   29   54 1    
    55   30   31 ar   
    56   30   34 1    
    57   31   32 ar   
    58   32   33 ar   
    59   32   55 1    
    60   34   56 1    
    61   34   57 1    
@<TRIPOS>SUBSTRUCTURE
     1 IBR         1 GROUP             0       ****    0 ROOT    
@<TRIPOS>MOLECULE
1-[(3~{R})-3-[4-amino-3-(4-phenoxyphenyl)pyrazolo[3,4-d]pyrimidin-1-yl]-1-piperidyl]prop-2-en-1-one
58   62    1
SMALL
USER_CHARGES


@<TRIPOS>ATOM
      1 C1         -0.6639    3.6948   -1.2576 C.2       1 IBR        -0.1563 
      2 C2         -0.2068    2.5735   -0.6963 C.2       1 IBR        -0.2198 
      3 C3         -1.0751    1.3796   -0.6784 C.2       1 IBR         0.6572 
      4 O1         -2.2932    1.5610   -0.6386 O.2       1 IBR        -0.5974 
      5 N1         -0.4607    0.1313   -0.7010 N.am      1 IBR        -0.4709 
      6 C4         -1.2864   -1.0783   -0.6907 C.3       1 IBR         0.0938 
      7 C5         -0.9264   -1.9593    0.5039 C.3       1 IBR        -0.0996 
      8 C6          0.5722   -2.2697    0.5383 C.3       1 IBR        -0.1009 
      9 C7          1.4080   -0.9758    0.4672 C.3       1 IBR         0.2410 
     10 H1          1.2239   -0.3859    1.3772 H         1 IBR         0.0798 
     11 C8          0.9856   -0.1329   -0.7484 C.3       1 IBR         0.0808 
     12 N2          2.8968   -1.2639    0.4716 N.pl3     1 IBR        -0.4004 
     13 C9          3.8099   -0.8372    1.3894 C.ar      1 IBR         0.6068 
     14 C10         5.0300   -1.3448    0.9787 C.ar      1 IBR        -0.5012 
     15 C11         4.7299   -2.0597   -0.1958 C.ar      1 IBR         0.4203 
     16 N3          3.4307   -2.0140   -0.5103 N.2       1 IBR        -0.4085 
     17 C12         5.6443   -2.7920   -1.0352 C.ar      1 IBR        -0.1311 
     18 C13         6.2822   -2.1508   -2.0971 C.ar      1 IBR        -0.0890 
     19 C14         7.1675   -2.8596   -2.9093 C.ar      1 IBR        -0.1577 
     20 C15         7.4148   -4.2094   -2.6596 C.ar      1 IBR         0.1068 
     21 C16         6.7768   -4.8506   -1.5977 C.ar      1 IBR        -0.1577 
     22 C17         5.8916   -4.1418   -0.7855 C.ar      1 IBR        -0.0890 
     23 O2          8.2786   -4.9009   -3.4523 O.3       1 IBR        -0.2520 
     24 C18         9.2022   -5.7253   -2.8318 C.ar      1 IBR         0.0911 
     25 C19         9.4264   -7.0127   -3.3198 C.ar      1 IBR        -0.1482 
     26 C20        10.3568   -7.8432   -2.6951 C.ar      1 IBR        -0.1123 
     27 C21        11.0630   -7.3863   -1.5823 C.ar      1 IBR        -0.1428 
     28 C22        10.8387   -6.0989   -1.0943 C.ar      1 IBR        -0.1123 
     29 C23         9.9083   -5.2685   -1.7191 C.ar      1 IBR        -0.1482 
     30 C24         6.1372   -1.0430    1.7646 C.ar      1 IBR         0.7705 
     31 N4          5.9709   -0.2811    2.8723 N.ar      1 IBR        -0.8030 
     32 C25         4.7171    0.1476    3.1528 C.ar      1 IBR         0.6966 
     33 N5          3.5732   -0.0788    2.4715 N.pl3     1 IBR        -0.7451 
     34 N6          7.4200   -1.5139    1.4310 N.pl3     1 IBR        -0.9643 
     35 H2         -0.0324    4.5952   -1.2811 H         1 IBR         0.1245 
     36 H3         -1.6722    3.7186   -1.6968 H         1 IBR         0.1245 
     37 H4          0.8015    2.5497   -0.2571 H         1 IBR         0.1434 
     38 H5         -2.3476   -0.7972   -0.6213 H         1 IBR         0.0515 
     39 H6         -1.1172   -1.6457   -1.6178 H         1 IBR         0.0515 
     40 H7         -1.1968   -1.4416    1.4360 H         1 IBR         0.0541 
     41 H8         -1.4779   -2.9088    0.4386 H         1 IBR         0.0541 
     42 H9          0.8163   -2.7957    1.4731 H         1 IBR         0.0648 
     43 H10         0.8347   -2.9060   -0.3197 H         1 IBR         0.0648 
     44 H11         1.2281   -0.6816   -1.6704 H         1 IBR         0.0846 
     45 H12         1.5333    0.8210   -0.7346 H         1 IBR         0.0846 
     46 H13         6.0997   -1.0992   -2.3052 H         1 IBR         0.1484 
     47 H14         7.6621   -2.3547   -3.7345 H         1 IBR         0.1543 
     48 H15         6.9650   -5.9021   -1.3984 H         1 IBR         0.1543 
     49 H16         5.4028   -4.6557    0.0389 H         1 IBR         0.1484 
     50 H17         8.8800   -7.3739   -4.1868 H         1 IBR         0.1502 
     51 H18        10.5322   -8.8452   -3.0755 H         1 IBR         0.1364 
     52 H19        11.7886   -8.0321   -1.0968 H         1 IBR         0.1349 
     53 H20        11.3893   -5.7432   -0.2281 H         1 IBR         0.1364 
     54 H21         9.7378   -4.2668   -1.3342 H         1 IBR         0.1502 
     55 H22         4.6188    0.7534    4.0473 H         1 IBR         0.0515 
     56 H23         8.2810   -1.2624    2.0677 H         1 IBR         0.4478 
     57 H24         7.5622   -2.1337    0.5334 H         1 IBR         0.4478 
     58 H58         2.5510    0.2637    2.6902 H         1 IBR         0.0000 
@<TRIPOS>BOND
     1    1    2 2    
     2    1   35 1    
     3    1   36 1    
     4    2    3 1    
     5    2   37 1    
     6    3    4 2    
     7    3    5 am   BACKBONE|DICT|INTERRES
     8    5   11 1    
     9    5    6 1    
    10    6    7 1    
    11    6   38 1    
    12    6   39 1    
    13    7    8 1    
    14    7   40 1    
    15    7   41 1    
    16    8    9 1    
    17    8   42 1    
    18    8   43 1    
    19    9   10 1    
    20    9   11 1    
    21    9   12 1    
    22   11   44 1    
    23   11   45 1    
    24   12   16 ar   
    25   12   13 ar   
    26   13   33 ar   
    27   13   14 ar   
    28   14   15 ar   
    29   14   30 ar   
    30   15   16 ar   
    31   15   17 1    
    32   17   22 ar   
    33   17   18 ar   
    34   18   19 ar   
    35   18   46 1    
    36   19   20 ar   
    37   19   47 1    
    38   20   21 ar   
    39   20   23 1    
    40   21   22 ar   
    41   21   48 1    
    42   22   49 1    
    43   23   24 1    
    44   24   29 ar   
    45   24   25 ar   
    46   25   26 ar   
    47   25   50 1    
    48   26   27 ar   
    49   26   51 1    
    50   27   28 ar   
    51   27   52 1    
    52   28   29 ar   
    53   28   53 1    
    54   29   54 1    
    55   30   31 ar   
    56   30   34 1    
    57   31   32 ar   
    58   32   33 ar   
    59   32   55 1    
    60   33   58 1    
    61   34   56 1    
    62   34   57 1    
@<TRIPOS>SUBSTRUCTURE
     1 IBR         1 GROUP             0       ****    0 ROOT    
@<TRIPOS>MOLECULE
1-[(3~{R})-3-[4-amino-3-(4-phenoxyphenyl)pyrazolo[3,4-d]pyrimidin-1-yl]-1-piperidyl]prop-2-en-1-one
58   62    1
SMALL
USER_CHARGES


@<TRIPOS>ATOM
      1 C1         -0.6639    3.6948   -1.2576 C.2       1 IBR        -0.1563 
      2 C2         -0.2068    2.5735   -0.6963 C.2       1 IBR        -0.2198 
      3 C3         -1.0751    1.3796   -0.6784 C.2       1 IBR         0.6572 
      4 O1         -2.2932    1.5610   -0.6386 O.2       1 IBR        -0.5974 
      5 N1         -0.4607    0.1313   -0.7010 N.am      1 IBR        -0.4709 
      6 C4         -1.2864   -1.0783   -0.6907 C.3       1 IBR         0.0938 
      7 C5         -0.9264   -1.9593    0.5039 C.3       1 IBR        -0.0996 
      8 C6          0.5722   -2.2697    0.5383 C.3       1 IBR        -0.1009 
      9 C7          1.4080   -0.9758    0.4672 C.3       1 IBR         0.2410 
     10 H1          1.2239   -0.3859    1.3772 H         1 IBR         0.0798 
     11 C8          0.9856   -0.1329   -0.7484 C.3       1 IBR         0.0808 
     12 N2          2.8968   -1.2639    0.4716 N.pl3     1 IBR        -0.4004 
     13 C9          3.8099   -0.8372    1.3894 C.ar      1 IBR         0.6068 
     14 C10         5.0300   -1.3448    0.9787 C.ar      1 IBR        -0.5012 
     15 C11         4.7299   -2.0597   -0.1958 C.ar      1 IBR         0.4203 
     16 N3          3.4307   -2.0140   -0.5103 N.2       1 IBR        -0.4085 
     17 C12         5.6443   -2.7920   -1.0352 C.ar      1 IBR        -0.1311 
     18 C13         6.2822   -2.1508   -2.0971 C.ar      1 IBR        -0.0890 
     19 C14         7.1675   -2.8596   -2.9093 C.ar      1 IBR        -0.1577 
     20 C15         7.4148   -4.2094   -2.6596 C.ar      1 IBR         0.1068 
     21 C16         6.7768   -4.8506   -1.5977 C.ar      1 IBR        -0.1577 
     22 C17         5.8916   -4.1418   -0.7855 C.ar      1 IBR        -0.0890 
     23 O2          8.2786   -4.9009   -3.4523 O.3       1 IBR        -0.2520 
     24 C18         9.2022   -5.7253   -2.8318 C.ar      1 IBR         0.0911 
     25 C19         9.4264   -7.0127   -3.3198 C.ar      1 IBR        -0.1482 
     26 C20        10.3568   -7.8432   -2.6951 C.ar      1 IBR        -0.1123 
     27 C21        11.0630   -7.3863   -1.5823 C.ar      1 IBR        -0.1428 
     28 C22        10.8387   -6.0989   -1.0943 C.ar      1 IBR        -0.1123 
     29 C23         9.9083   -5.2685   -1.7191 C.ar      1 IBR        -0.1482 
     30 C24         6.1372   -1.0430    1.7646 C.ar      1 IBR         0.7705 
     31 N4          5.9709   -0.2811    2.8723 N.pl3     1 IBR        -0.8030 
     32 C25         4.7171    0.1476    3.1528 C.ar      1 IBR         0.6966 
     33 N5          3.5732   -0.0788    2.4715 N.ar      1 IBR        -0.7451 
     34 N6          7.4200   -1.5139    1.4310 N.pl3     1 IBR        -0.9643 
     35 H2         -0.0324    4.5952   -1.2811 H         1 IBR         0.1245 
     36 H3         -1.6722    3.7186   -1.6968 H         1 IBR         0.1245 
     37 H4          0.8015    2.5497   -0.2571 H         1 IBR         0.1434 
     38 H5         -2.3476   -0.7972   -0.6213 H         1 IBR         0.0515 
     39 H6         -1.1172   -1.6457   -1.6178 H         1 IBR         0.0515 
     40 H7         -1.1968   -1.4416    1.4360 H         1 IBR         0.0541 
     41 H8         -1.4779   -2.9088    0.4386 H         1 IBR         0.0541 
     42 H9          0.8163   -2.7957    1.4731 H         1 IBR         0.0648 
     43 H10         0.8347   -2.9060   -0.3197 H         1 IBR         0.0648 
     44 H11         1.2281   -0.6816   -1.6704 H         1 IBR         0.0846 
     45 H12         1.5333    0.8210   -0.7346 H         1 IBR         0.0846 
     46 H13         6.0997   -1.0992   -2.3052 H         1 IBR         0.1484 
     47 H14         7.6621   -2.3547   -3.7345 H         1 IBR         0.1543 
     48 H15         6.9650   -5.9021   -1.3984 H         1 IBR         0.1543 
     49 H16         5.4028   -4.6557    0.0389 H         1 IBR         0.1484 
     50 H17         8.8800   -7.3739   -4.1868 H         1 IBR         0.1502 
     51 H18        10.5322   -8.8452   -3.0755 H         1 IBR         0.1364 
     52 H19        11.7886   -8.0321   -1.0968 H         1 IBR         0.1349 
     53 H20        11.3893   -5.7432   -0.2281 H         1 IBR         0.1364 
     54 H21         9.7378   -4.2668   -1.3342 H         1 IBR         0.1502 
     55 H22         4.6188    0.7534    4.0473 H         1 IBR         0.0515 
     56 H23         8.2810   -1.2624    2.0677 H         1 IBR         0.4478 
     57 H24         7.5622   -2.1337    0.5334 H         1 IBR         0.4478 
     58 H58         6.8364   -0.0332    3.5044 H         1 IBR         0.0000 
@<TRIPOS>BOND
     1    1    2 2    
     2    1   35 1    
     3    1   36 1    
     4    2    3 1    
     5    2   37 1    
     6    3    4 2    
     7    3    5 am   BACKBONE|DICT|INTERRES
     8    5   11 1    
     9    5    6 1    
    10    6    7 1    
    11    6   38 1    
    12    6   39 1    
    13    7    8 1    
    14    7   40 1    
    15    7   41 1    
    16    8    9 1    
    17    8   42 1    
    18    8   43 1    
    19    9   10 1    
    20    9   11 1    
    21    9   12 1    
    22   11   44 1    
    23   11   45 1    
    24   12   16 ar   
    25   12   13 ar   
    26   13   33 ar   
    27   13   14 ar   
    28   14   15 ar   
    29   14   30 ar   
    30   15   16 ar   
    31   15   17 1    
    32   17   22 ar   
    33   17   18 ar   
    34   18   19 ar   
    35   18   46 1    
    36   19   20 ar   
    37   19   47 1    
    38   20   21 ar   
    39   20   23 1    
    40   21   22 ar   
    41   21   48 1    
    42   22   49 1    
    43   23   24 1    
    44   24   29 ar   
    45   24   25 ar   
    46   25   26 ar   
    47   25   50 1    
    48   26   27 ar   
    49   26   51 1    
    50   27   28 ar   
    51   27   52 1    
    52   28   29 ar   
    53   28   53 1    
    54   29   54 1    
    55   30   31 ar   
    56   30   34 1    
    57   31   32 ar   
    58   31   58 1    
    59   32   33 ar   
    60   32   55 1    
    61   34   56 1    
    62   34   57 1    
@<TRIPOS>SUBSTRUCTURE
     1 IBR         1 GROUP             0       ****    0 ROOT    
