DB8
                    3D
 Structure written by MMmdl.
 66 69  0  0  1  0            999 V2000
  -46.2890  -11.8980   31.9630 C   0  0  0  0  0  0
  -40.7340   -3.3480   34.4650 O   0  0  0  0  0  0
  -45.9370  -16.7140   33.9290 C   0  0  0  0  0  0
  -42.0470   -5.6070   36.9580 N   0  0  0  0  0  0
  -41.6410   -2.5430   31.7040 Cl  0  0  0  0  0  0
  -43.8530   -7.4090   31.5070 Cl  0  0  0  0  0  0
  -42.6040   -6.4970   36.8710 C   0  0  0  0  0  0
  -44.1270   -8.3740   37.7730 C   0  0  0  0  0  0
  -42.6710   -5.0430   31.8540 C   0  0  0  0  0  0
  -41.7470   -5.6360   34.3880 C   0  0  0  0  0  0
  -45.8070  -11.4630   36.5110 C   0  0  0  0  0  0
  -44.4960  -10.5590   34.1910 C   0  0  0  0  0  0
  -46.3970  -15.2540   33.9000 C   0  0  0  0  0  0
  -46.3040  -14.6450   35.2980 C   0  0  0  0  0  0
  -49.7410  -20.4620   32.0550 C   0  0  0  0  0  0
  -46.9010  -18.9560   34.0040 C   0  0  0  0  0  0
  -47.5400  -17.3980   32.3130 C   0  0  0  0  0  0
  -48.0990  -19.8290   33.6830 C   0  0  0  0  0  0
  -48.7550  -18.2620   32.0640 C   0  0  0  0  0  0
  -44.8800   -9.5430   37.6960 N   0  0  0  0  0  0
  -42.7700   -7.9670   34.2760 N   0  0  0  0  0  0
  -45.3390  -12.3390   32.8620 O   0  0  0  0  0  0
  -46.8510  -13.3800   35.2230 O   0  0  0  0  0  0
  -41.4640   -4.3120   33.7870 C   0  0  0  0  0  0
  -41.9390   -4.0440   32.5110 C   0  0  0  0  0  0
  -42.9410   -6.2980   32.4360 C   0  0  0  0  0  0
  -43.4290   -7.8160   36.7070 C   0  0  0  0  0  0
  -42.4850   -6.6150   33.7650 C   0  0  0  0  0  0
  -45.2610  -11.7280   34.1420 C   0  0  0  0  0  0
  -45.9310  -12.2080   35.3090 C   0  0  0  0  0  0
  -43.5260   -8.4920   35.4760 C   0  0  0  0  0  0
  -44.9960  -10.2460   36.5210 C   0  0  0  0  0  0
  -44.3210   -9.7500   35.3900 C   0  0  0  0  0  0
  -47.1180  -17.5460   33.6690 N   0  0  0  0  0  0
  -48.5470  -19.6570   32.3240 N   0  3  0  0  0  0
  -39.4020   -2.8960   34.0930 C   0  0  0  0  0  0
  -46.2083  -12.4766   31.0309 H   0  0  0  0  0  0
  -46.1236  -10.8319   31.7483 H   0  0  0  0  0  0
  -47.2921  -12.0341   32.3934 H   0  0  0  0  0  0
  -45.1731  -16.8732   33.1537 H   0  0  0  0  0  0
  -45.5108  -16.9446   34.9165 H   0  0  0  0  0  0
  -44.0820   -7.8660   38.7250 H   0  0  0  0  0  0
  -43.0440   -4.8430   30.8600 H   0  0  0  0  0  0
  -41.3510   -5.8440   35.3710 H   0  0  0  0  0  0
  -46.3070  -11.7920   37.4100 H   0  0  0  0  0  0
  -44.0050  -10.2360   33.2850 H   0  0  0  0  0  0
  -45.7559  -14.6811   33.2139 H   0  0  0  0  0  0
  -47.4400  -15.2050   33.5541 H   0  0  0  0  0  0
  -46.8650  -15.2701   36.0083 H   0  0  0  0  0  0
  -45.2494  -14.5953   35.6069 H   0  0  0  0  0  0
  -49.5265  -21.5192   32.2702 H   0  0  0  0  0  0
  -50.0260  -20.3534   30.9981 H   0  0  0  0  0  0
  -50.5670  -20.1178   32.6947 H   0  0  0  0  0  0
  -46.6821  -19.0151   35.0804 H   0  0  0  0  0  0
  -46.0286  -19.3060   33.4327 H   0  0  0  0  0  0
  -47.7942  -16.3451   32.1209 H   0  0  0  0  0  0
  -46.7268  -17.7075   31.6400 H   0  0  0  0  0  0
  -47.8304  -20.8864   33.8237 H   0  0  0  0  0  0
  -48.9317  -19.5699   34.3534 H   0  0  0  0  0  0
  -49.5790  -17.9318   32.7136 H   0  0  0  0  0  0
  -49.0596  -18.1717   31.0109 H   0  0  0  0  0  0
  -42.2952   -8.6691   33.5748 H   0  0  0  0  0  0
  -39.0639   -2.1274   34.8036 H   0  0  0  0  0  0
  -39.4289   -2.4712   33.0787 H   0  0  0  0  0  0
  -38.7062   -3.7477   34.1155 H   0  0  0  0  0  0
  -47.7591  -20.0022   31.6385 H   0  0  0  0  0  0
  1 22  1  0  0  0
  1 37  1  0  0  0
  1 38  1  0  0  0
  1 39  1  0  0  0
  2 24  1  0  0  0
  2 36  1  0  0  0
  3 40  1  0  0  0
  3 41  1  0  0  0
  3 13  1  0  0  0
  3 34  1  0  0  0
  4  7  3  0  0  0
  5 25  1  0  0  0
  6 26  1  0  0  0
  7 27  1  0  0  0
  8 42  1  0  0  0
  8 20  2  0  0  0
  8 27  1  0  0  0
  9 26  2  0  0  0
  9 25  1  0  0  0
  9 43  1  0  0  0
 10 44  1  0  0  0
 10 24  1  0  0  0
 10 28  2  0  0  0
 11 32  2  0  0  0
 11 45  1  0  0  0
 11 30  1  0  0  0
 12 33  2  0  0  0
 12 46  1  0  0  0
 12 29  1  0  0  0
 13 14  1  0  0  0
 13 47  1  0  0  0
 13 48  1  0  0  0
 14 49  1  0  0  0
 14 50  1  0  0  0
 14 23  1  0  0  0
 15 35  1  0  0  0
 15 51  1  0  0  0
 15 52  1  0  0  0
 15 53  1  0  0  0
 16 54  1  0  0  0
 16 55  1  0  0  0
 16 18  1  0  0  0
 16 34  1  0  0  0
 17 34  1  0  0  0
 17 56  1  0  0  0
 17 57  1  0  0  0
 17 19  1  0  0  0
 18 58  1  0  0  0
 18 59  1  0  0  0
 18 35  1  0  0  0
 19 35  1  0  0  0
 19 60  1  0  0  0
 19 61  1  0  0  0
 20 32  1  0  0  0
 21 31  1  0  0  0
 21 62  1  0  0  0
 21 28  1  0  0  0
 22 29  1  0  0  0
 23 30  1  0  0  0
 24 25  2  0  0  0
 26 28  1  0  0  0
 27 31  2  0  0  0
 29 30  2  0  0  0
 31 33  1  0  0  0
 32 33  1  0  0  0
 35 66  1  0  0  0
 36 63  1  0  0  0
 36 64  1  0  0  0
 36 65  1  0  0  0
M  CHG  1  35   1
M  END
> <s_m_source_file>
C:\GitHub\mcce-charges\epik_inhibitors\output-new\Bosutinib\Bosutinib-input.mol2

> <i_m_source_file_index>
1

> <r_epik_Ionization_Penalty>
  0.0671

> <r_epik_Ionization_Penalty_Charging>
  0.0659

> <r_epik_Ionization_Penalty_Neutral>
  0.0012

> <r_epik_State_Penalty>
  0.1268

> <r_epik_Charging_Adjusted_Penalty>
0.192695286062463

> <i_epik_Tot_Q>
1

> <i_epik_Tot_abs_Q>
1

$$$$
DB8
                    3D
 Structure written by MMmdl.
 66 69  0  0  1  0            999 V2000
  -46.2890  -11.8980   31.9630 C   0  0  0  0  0  0
  -40.7340   -3.3480   34.4650 O   0  0  0  0  0  0
  -45.9370  -16.7140   33.9290 C   0  0  0  0  0  0
  -42.0470   -5.6070   36.9580 N   0  0  0  0  0  0
  -41.6410   -2.5430   31.7040 Cl  0  0  0  0  0  0
  -43.8530   -7.4090   31.5070 Cl  0  0  0  0  0  0
  -42.6040   -6.4970   36.8710 C   0  0  0  0  0  0
  -44.1270   -8.3740   37.7730 C   0  0  0  0  0  0
  -42.6710   -5.0430   31.8540 C   0  0  0  0  0  0
  -41.7470   -5.6360   34.3880 C   0  0  0  0  0  0
  -45.8070  -11.4630   36.5110 C   0  0  0  0  0  0
  -44.4960  -10.5590   34.1910 C   0  0  0  0  0  0
  -46.3970  -15.2540   33.9000 C   0  0  0  0  0  0
  -46.3040  -14.6450   35.2980 C   0  0  0  0  0  0
  -49.7410  -20.4620   32.0550 C   0  0  0  0  0  0
  -46.9010  -18.9560   34.0040 C   0  0  0  0  0  0
  -47.5400  -17.3980   32.3130 C   0  0  0  0  0  0
  -48.0990  -19.8290   33.6830 C   0  0  0  0  0  0
  -48.7550  -18.2620   32.0640 C   0  0  0  0  0  0
  -44.8800   -9.5430   37.6960 N   0  0  0  0  0  0
  -42.7700   -7.9670   34.2760 N   0  0  0  0  0  0
  -45.3390  -12.3390   32.8620 O   0  0  0  0  0  0
  -46.8510  -13.3800   35.2230 O   0  0  0  0  0  0
  -41.4640   -4.3120   33.7870 C   0  0  0  0  0  0
  -41.9390   -4.0440   32.5110 C   0  0  0  0  0  0
  -42.9410   -6.2980   32.4360 C   0  0  0  0  0  0
  -43.4290   -7.8160   36.7070 C   0  0  0  0  0  0
  -42.4850   -6.6150   33.7650 C   0  0  0  0  0  0
  -45.2610  -11.7280   34.1420 C   0  0  0  0  0  0
  -45.9310  -12.2080   35.3090 C   0  0  0  0  0  0
  -43.5260   -8.4920   35.4760 C   0  0  0  0  0  0
  -44.9960  -10.2460   36.5210 C   0  0  0  0  0  0
  -44.3210   -9.7500   35.3900 C   0  0  0  0  0  0
  -47.1180  -17.5460   33.6690 N   0  3  0  0  0  0
  -48.5470  -19.6570   32.3240 N   0  0  0  0  0  0
  -39.4020   -2.8960   34.0930 C   0  0  0  0  0  0
  -46.2083  -12.4766   31.0309 H   0  0  0  0  0  0
  -46.1236  -10.8319   31.7483 H   0  0  0  0  0  0
  -47.2921  -12.0341   32.3934 H   0  0  0  0  0  0
  -45.1731  -16.8732   33.1537 H   0  0  0  0  0  0
  -45.5108  -16.9446   34.9165 H   0  0  0  0  0  0
  -44.0820   -7.8660   38.7250 H   0  0  0  0  0  0
  -43.0440   -4.8430   30.8600 H   0  0  0  0  0  0
  -41.3510   -5.8440   35.3710 H   0  0  0  0  0  0
  -46.3070  -11.7920   37.4100 H   0  0  0  0  0  0
  -44.0050  -10.2360   33.2850 H   0  0  0  0  0  0
  -45.7559  -14.6811   33.2139 H   0  0  0  0  0  0
  -47.4400  -15.2050   33.5541 H   0  0  0  0  0  0
  -46.8650  -15.2701   36.0083 H   0  0  0  0  0  0
  -45.2494  -14.5953   35.6069 H   0  0  0  0  0  0
  -49.5265  -21.5192   32.2702 H   0  0  0  0  0  0
  -50.0260  -20.3534   30.9981 H   0  0  0  0  0  0
  -50.5670  -20.1178   32.6947 H   0  0  0  0  0  0
  -46.6821  -19.0151   35.0804 H   0  0  0  0  0  0
  -46.0286  -19.3060   33.4327 H   0  0  0  0  0  0
  -47.7942  -16.3451   32.1209 H   0  0  0  0  0  0
  -46.7268  -17.7075   31.6400 H   0  0  0  0  0  0
  -47.8304  -20.8864   33.8237 H   0  0  0  0  0  0
  -48.9317  -19.5699   34.3534 H   0  0  0  0  0  0
  -49.5790  -17.9318   32.7136 H   0  0  0  0  0  0
  -49.0596  -18.1717   31.0109 H   0  0  0  0  0  0
  -42.2952   -8.6691   33.5748 H   0  0  0  0  0  0
  -39.0639   -2.1274   34.8036 H   0  0  0  0  0  0
  -39.4289   -2.4712   33.0787 H   0  0  0  0  0  0
  -38.7062   -3.7477   34.1155 H   0  0  0  0  0  0
  -47.9374  -17.1850   34.3079 H   0  0  0  0  0  0
  1 22  1  0  0  0
  1 37  1  0  0  0
  1 38  1  0  0  0
  1 39  1  0  0  0
  2 24  1  0  0  0
  2 36  1  0  0  0
  3 40  1  0  0  0
  3 41  1  0  0  0
  3 13  1  0  0  0
  3 34  1  0  0  0
  4  7  3  0  0  0
  5 25  1  0  0  0
  6 26  1  0  0  0
  7 27  1  0  0  0
  8 42  1  0  0  0
  8 20  2  0  0  0
  8 27  1  0  0  0
  9 26  2  0  0  0
  9 25  1  0  0  0
  9 43  1  0  0  0
 10 44  1  0  0  0
 10 24  1  0  0  0
 10 28  2  0  0  0
 11 32  2  0  0  0
 11 45  1  0  0  0
 11 30  1  0  0  0
 12 33  2  0  0  0
 12 46  1  0  0  0
 12 29  1  0  0  0
 13 14  1  0  0  0
 13 47  1  0  0  0
 13 48  1  0  0  0
 14 49  1  0  0  0
 14 50  1  0  0  0
 14 23  1  0  0  0
 15 35  1  0  0  0
 15 51  1  0  0  0
 15 52  1  0  0  0
 15 53  1  0  0  0
 16 54  1  0  0  0
 16 55  1  0  0  0
 16 18  1  0  0  0
 16 34  1  0  0  0
 17 34  1  0  0  0
 17 56  1  0  0  0
 17 57  1  0  0  0
 17 19  1  0  0  0
 18 58  1  0  0  0
 18 59  1  0  0  0
 18 35  1  0  0  0
 19 35  1  0  0  0
 19 60  1  0  0  0
 19 61  1  0  0  0
 20 32  1  0  0  0
 21 31  1  0  0  0
 21 62  1  0  0  0
 21 28  1  0  0  0
 22 29  1  0  0  0
 23 30  1  0  0  0
 24 25  2  0  0  0
 26 28  1  0  0  0
 27 31  2  0  0  0
 29 30  2  0  0  0
 31 33  1  0  0  0
 32 33  1  0  0  0
 34 66  1  0  0  0
 36 63  1  0  0  0
 36 64  1  0  0  0
 36 65  1  0  0  0
M  CHG  1  34   1
M  END
> <s_m_source_file>
C:\GitHub\mcce-charges\epik_inhibitors\output-new\Bosutinib\Bosutinib-input.mol2

> <i_m_source_file_index>
1

> <r_epik_Ionization_Penalty>
  0.2841

> <r_epik_Ionization_Penalty_Charging>
  0.2826

> <r_epik_Ionization_Penalty_Neutral>
  0.0015

> <r_epik_State_Penalty>
  1.2566

> <r_epik_Charging_Adjusted_Penalty>
1.53923064292479

> <i_epik_Tot_Q>
1

> <i_epik_Tot_abs_Q>
1

$$$$
DB8
                    3D
 Structure written by MMmdl.
 65 68  0  0  1  0            999 V2000
  -46.2890  -11.8980   31.9630 C   0  0  0  0  0  0
  -40.7340   -3.3480   34.4650 O   0  0  0  0  0  0
  -45.9370  -16.7140   33.9290 C   0  0  0  0  0  0
  -42.0470   -5.6070   36.9580 N   0  0  0  0  0  0
  -41.6410   -2.5430   31.7040 Cl  0  0  0  0  0  0
  -43.8530   -7.4090   31.5070 Cl  0  0  0  0  0  0
  -42.6040   -6.4970   36.8710 C   0  0  0  0  0  0
  -44.1270   -8.3740   37.7730 C   0  0  0  0  0  0
  -42.6710   -5.0430   31.8540 C   0  0  0  0  0  0
  -41.7470   -5.6360   34.3880 C   0  0  0  0  0  0
  -45.8070  -11.4630   36.5110 C   0  0  0  0  0  0
  -44.4960  -10.5590   34.1910 C   0  0  0  0  0  0
  -46.3970  -15.2540   33.9000 C   0  0  0  0  0  0
  -46.3040  -14.6450   35.2980 C   0  0  0  0  0  0
  -49.7410  -20.4620   32.0550 C   0  0  0  0  0  0
  -46.9010  -18.9560   34.0040 C   0  0  0  0  0  0
  -47.5400  -17.3980   32.3130 C   0  0  0  0  0  0
  -48.0990  -19.8290   33.6830 C   0  0  0  0  0  0
  -48.7550  -18.2620   32.0640 C   0  0  0  0  0  0
  -44.8800   -9.5430   37.6960 N   0  0  0  0  0  0
  -42.7700   -7.9670   34.2760 N   0  0  0  0  0  0
  -45.3390  -12.3390   32.8620 O   0  0  0  0  0  0
  -46.8510  -13.3800   35.2230 O   0  0  0  0  0  0
  -41.4640   -4.3120   33.7870 C   0  0  0  0  0  0
  -41.9390   -4.0440   32.5110 C   0  0  0  0  0  0
  -42.9410   -6.2980   32.4360 C   0  0  0  0  0  0
  -43.4290   -7.8160   36.7070 C   0  0  0  0  0  0
  -42.4850   -6.6150   33.7650 C   0  0  0  0  0  0
  -45.2610  -11.7280   34.1420 C   0  0  0  0  0  0
  -45.9310  -12.2080   35.3090 C   0  0  0  0  0  0
  -43.5260   -8.4920   35.4760 C   0  0  0  0  0  0
  -44.9960  -10.2460   36.5210 C   0  0  0  0  0  0
  -44.3210   -9.7500   35.3900 C   0  0  0  0  0  0
  -47.1180  -17.5460   33.6690 N   0  0  0  0  0  0
  -48.5470  -19.6570   32.3240 N   0  0  0  0  0  0
  -39.4020   -2.8960   34.0930 C   0  0  0  0  0  0
  -46.2083  -12.4766   31.0309 H   0  0  0  0  0  0
  -46.1236  -10.8319   31.7483 H   0  0  0  0  0  0
  -47.2921  -12.0341   32.3934 H   0  0  0  0  0  0
  -45.1731  -16.8732   33.1537 H   0  0  0  0  0  0
  -45.5108  -16.9446   34.9165 H   0  0  0  0  0  0
  -44.0820   -7.8660   38.7250 H   0  0  0  0  0  0
  -43.0440   -4.8430   30.8600 H   0  0  0  0  0  0
  -41.3510   -5.8440   35.3710 H   0  0  0  0  0  0
  -46.3070  -11.7920   37.4100 H   0  0  0  0  0  0
  -44.0050  -10.2360   33.2850 H   0  0  0  0  0  0
  -45.7559  -14.6811   33.2139 H   0  0  0  0  0  0
  -47.4400  -15.2050   33.5541 H   0  0  0  0  0  0
  -46.8650  -15.2701   36.0083 H   0  0  0  0  0  0
  -45.2494  -14.5953   35.6069 H   0  0  0  0  0  0
  -49.5265  -21.5192   32.2702 H   0  0  0  0  0  0
  -50.0260  -20.3534   30.9981 H   0  0  0  0  0  0
  -50.5670  -20.1178   32.6947 H   0  0  0  0  0  0
  -46.6821  -19.0151   35.0804 H   0  0  0  0  0  0
  -46.0286  -19.3060   33.4327 H   0  0  0  0  0  0
  -47.7942  -16.3451   32.1209 H   0  0  0  0  0  0
  -46.7268  -17.7075   31.6400 H   0  0  0  0  0  0
  -47.8304  -20.8864   33.8237 H   0  0  0  0  0  0
  -48.9317  -19.5699   34.3534 H   0  0  0  0  0  0
  -49.5790  -17.9318   32.7136 H   0  0  0  0  0  0
  -49.0596  -18.1717   31.0109 H   0  0  0  0  0  0
  -42.2952   -8.6691   33.5748 H   0  0  0  0  0  0
  -39.0639   -2.1274   34.8036 H   0  0  0  0  0  0
  -39.4289   -2.4712   33.0787 H   0  0  0  0  0  0
  -38.7062   -3.7477   34.1155 H   0  0  0  0  0  0
  1 22  1  0  0  0
  1 37  1  0  0  0
  1 38  1  0  0  0
  1 39  1  0  0  0
  2 24  1  0  0  0
  2 36  1  0  0  0
  3 40  1  0  0  0
  3 41  1  0  0  0
  3 13  1  0  0  0
  3 34  1  0  0  0
  4  7  3  0  0  0
  5 25  1  0  0  0
  6 26  1  0  0  0
  7 27  1  0  0  0
  8 42  1  0  0  0
  8 20  2  0  0  0
  8 27  1  0  0  0
  9 26  2  0  0  0
  9 25  1  0  0  0
  9 43  1  0  0  0
 10 44  1  0  0  0
 10 24  1  0  0  0
 10 28  2  0  0  0
 11 32  2  0  0  0
 11 45  1  0  0  0
 11 30  1  0  0  0
 12 33  2  0  0  0
 12 46  1  0  0  0
 12 29  1  0  0  0
 13 14  1  0  0  0
 13 47  1  0  0  0
 13 48  1  0  0  0
 14 49  1  0  0  0
 14 50  1  0  0  0
 14 23  1  0  0  0
 15 35  1  0  0  0
 15 51  1  0  0  0
 15 52  1  0  0  0
 15 53  1  0  0  0
 16 54  1  0  0  0
 16 55  1  0  0  0
 16 18  1  0  0  0
 16 34  1  0  0  0
 17 34  1  0  0  0
 17 56  1  0  0  0
 17 57  1  0  0  0
 17 19  1  0  0  0
 18 58  1  0  0  0
 18 59  1  0  0  0
 18 35  1  0  0  0
 19 35  1  0  0  0
 19 60  1  0  0  0
 19 61  1  0  0  0
 20 32  1  0  0  0
 21 31  1  0  0  0
 21 62  1  0  0  0
 21 28  1  0  0  0
 22 29  1  0  0  0
 23 30  1  0  0  0
 24 25  2  0  0  0
 26 28  1  0  0  0
 27 31  2  0  0  0
 29 30  2  0  0  0
 31 33  1  0  0  0
 32 33  1  0  0  0
 36 63  1  0  0  0
 36 64  1  0  0  0
 36 65  1  0  0  0
M  END
> <s_m_source_file>
C:\GitHub\mcce-charges\epik_inhibitors\output-new\Bosutinib\Bosutinib-input.mol2

> <i_m_source_file_index>
1

> <r_epik_Ionization_Penalty>
  1.9089

> <r_epik_Ionization_Penalty_Charging>
  0.0000

> <r_epik_Ionization_Penalty_Neutral>
  1.9089

> <r_epik_State_Penalty>
  1.5837

> <r_epik_Charging_Adjusted_Penalty>
1.58371144686076

> <i_epik_Tot_Q>
0

> <i_epik_Tot_abs_Q>
0

$$$$
DB8
                    3D
 Structure written by MMmdl.
 67 70  0  0  1  0            999 V2000
  -46.2890  -11.8980   31.9630 C   0  0  0  0  0  0
  -40.7340   -3.3480   34.4650 O   0  0  0  0  0  0
  -45.9370  -16.7140   33.9290 C   0  0  0  0  0  0
  -42.0470   -5.6070   36.9580 N   0  0  0  0  0  0
  -41.6410   -2.5430   31.7040 Cl  0  0  0  0  0  0
  -43.8530   -7.4090   31.5070 Cl  0  0  0  0  0  0
  -42.6040   -6.4970   36.8710 C   0  0  0  0  0  0
  -44.1270   -8.3740   37.7730 C   0  0  0  0  0  0
  -42.6710   -5.0430   31.8540 C   0  0  0  0  0  0
  -41.7470   -5.6360   34.3880 C   0  0  0  0  0  0
  -45.8070  -11.4630   36.5110 C   0  0  0  0  0  0
  -44.4960  -10.5590   34.1910 C   0  0  0  0  0  0
  -46.3970  -15.2540   33.9000 C   0  0  0  0  0  0
  -46.3040  -14.6450   35.2980 C   0  0  0  0  0  0
  -49.7410  -20.4620   32.0550 C   0  0  0  0  0  0
  -46.9010  -18.9560   34.0040 C   0  0  0  0  0  0
  -47.5400  -17.3980   32.3130 C   0  0  0  0  0  0
  -48.0990  -19.8290   33.6830 C   0  0  0  0  0  0
  -48.7550  -18.2620   32.0640 C   0  0  0  0  0  0
  -44.8800   -9.5430   37.6960 N   0  0  0  0  0  0
  -42.7700   -7.9670   34.2760 N   0  3  0  0  0  0
  -45.3390  -12.3390   32.8620 O   0  0  0  0  0  0
  -46.8510  -13.3800   35.2230 O   0  0  0  0  0  0
  -41.4640   -4.3120   33.7870 C   0  0  0  0  0  0
  -41.9390   -4.0440   32.5110 C   0  0  0  0  0  0
  -42.9410   -6.2980   32.4360 C   0  0  0  0  0  0
  -43.4290   -7.8160   36.7070 C   0  0  0  0  0  0
  -42.4850   -6.6150   33.7650 C   0  0  0  0  0  0
  -45.2610  -11.7280   34.1420 C   0  0  0  0  0  0
  -45.9310  -12.2080   35.3090 C   0  0  0  0  0  0
  -43.5260   -8.4920   35.4760 C   0  0  0  0  0  0
  -44.9960  -10.2460   36.5210 C   0  0  0  0  0  0
  -44.3210   -9.7500   35.3900 C   0  0  0  0  0  0
  -47.1180  -17.5460   33.6690 N   0  0  0  0  0  0
  -48.5470  -19.6570   32.3240 N   0  3  0  0  0  0
  -39.4020   -2.8960   34.0930 C   0  0  0  0  0  0
  -46.2083  -12.4766   31.0309 H   0  0  0  0  0  0
  -46.1236  -10.8319   31.7483 H   0  0  0  0  0  0
  -47.2921  -12.0341   32.3934 H   0  0  0  0  0  0
  -45.1731  -16.8732   33.1537 H   0  0  0  0  0  0
  -45.5108  -16.9446   34.9165 H   0  0  0  0  0  0
  -44.0820   -7.8660   38.7250 H   0  0  0  0  0  0
  -43.0440   -4.8430   30.8600 H   0  0  0  0  0  0
  -41.3510   -5.8440   35.3710 H   0  0  0  0  0  0
  -46.3070  -11.7920   37.4100 H   0  0  0  0  0  0
  -44.0050  -10.2360   33.2850 H   0  0  0  0  0  0
  -45.7559  -14.6811   33.2139 H   0  0  0  0  0  0
  -47.4400  -15.2050   33.5541 H   0  0  0  0  0  0
  -46.8650  -15.2701   36.0083 H   0  0  0  0  0  0
  -45.2494  -14.5953   35.6069 H   0  0  0  0  0  0
  -49.5265  -21.5192   32.2702 H   0  0  0  0  0  0
  -50.0260  -20.3534   30.9981 H   0  0  0  0  0  0
  -50.5670  -20.1178   32.6947 H   0  0  0  0  0  0
  -46.6821  -19.0151   35.0804 H   0  0  0  0  0  0
  -46.0286  -19.3060   33.4327 H   0  0  0  0  0  0
  -47.7942  -16.3451   32.1209 H   0  0  0  0  0  0
  -46.7268  -17.7075   31.6400 H   0  0  0  0  0  0
  -47.8304  -20.8864   33.8237 H   0  0  0  0  0  0
  -48.9317  -19.5699   34.3534 H   0  0  0  0  0  0
  -49.5790  -17.9318   32.7136 H   0  0  0  0  0  0
  -49.0596  -18.1717   31.0109 H   0  0  0  0  0  0
  -39.0639   -2.1274   34.8036 H   0  0  0  0  0  0
  -39.4289   -2.4712   33.0787 H   0  0  0  0  0  0
  -38.7062   -3.7477   34.1155 H   0  0  0  0  0  0
  -45.3986   -9.9230   38.5886 H   0  0  0  0  0  0
  -42.2952   -8.6691   33.5748 H   0  0  0  0  0  0
  -47.7591  -20.0022   31.6385 H   0  0  0  0  0  0
  1 22  1  0  0  0
  1 37  1  0  0  0
  1 38  1  0  0  0
  1 39  1  0  0  0
  2 24  1  0  0  0
  2 36  1  0  0  0
  3 40  1  0  0  0
  3 41  1  0  0  0
  3 13  1  0  0  0
  3 34  1  0  0  0
  4  7  3  0  0  0
  5 25  1  0  0  0
  6 26  1  0  0  0
  7 27  1  0  0  0
  8 42  1  0  0  0
  8 20  1  0  0  0
  8 27  2  0  0  0
  9 26  2  0  0  0
  9 25  1  0  0  0
  9 43  1  0  0  0
 10 44  1  0  0  0
 10 24  1  0  0  0
 10 28  2  0  0  0
 11 32  2  0  0  0
 11 45  1  0  0  0
 11 30  1  0  0  0
 12 33  2  0  0  0
 12 46  1  0  0  0
 12 29  1  0  0  0
 13 14  1  0  0  0
 13 47  1  0  0  0
 13 48  1  0  0  0
 14 49  1  0  0  0
 14 50  1  0  0  0
 14 23  1  0  0  0
 15 35  1  0  0  0
 15 51  1  0  0  0
 15 52  1  0  0  0
 15 53  1  0  0  0
 16 54  1  0  0  0
 16 55  1  0  0  0
 16 18  1  0  0  0
 16 34  1  0  0  0
 17 34  1  0  0  0
 17 56  1  0  0  0
 17 57  1  0  0  0
 17 19  1  0  0  0
 18 58  1  0  0  0
 18 59  1  0  0  0
 18 35  1  0  0  0
 19 35  1  0  0  0
 19 60  1  0  0  0
 19 61  1  0  0  0
 20 32  1  0  0  0
 20 65  1  0  0  0
 21 31  2  0  0  0
 21 28  1  0  0  0
 21 66  1  0  0  0
 22 29  1  0  0  0
 23 30  1  0  0  0
 24 25  2  0  0  0
 26 28  1  0  0  0
 27 31  1  0  0  0
 29 30  2  0  0  0
 31 33  1  0  0  0
 32 33  1  0  0  0
 35 67  1  0  0  0
 36 62  1  0  0  0
 36 63  1  0  0  0
 36 64  1  0  0  0
M  CHG  2  21   1  35   1
M  END
> <s_m_source_file>
C:\GitHub\mcce-charges\epik_inhibitors\output-new\Bosutinib\Bosutinib-input.mol2

> <i_m_source_file_index>
1

> <r_epik_Ionization_Penalty>
  1.2644

> <r_epik_Ionization_Penalty_Charging>
  0.0687

> <r_epik_Ionization_Penalty_Neutral>
  1.1957

> <r_epik_State_Penalty>
  3.7638

> <r_epik_Charging_Adjusted_Penalty>
3.83247017745076

> <i_epik_Tot_Q>
2

> <i_epik_Tot_abs_Q>
2

> <s_epik_Chemistry_Notes>
This compound has an imine and may undergo hydrolysis.

$$$$
DB8
                    3D
 Structure written by MMmdl.
 67 70  0  0  1  0            999 V2000
  -46.2890  -11.8980   31.9630 C   0  0  0  0  0  0
  -40.7340   -3.3480   34.4650 O   0  0  0  0  0  0
  -45.9370  -16.7140   33.9290 C   0  0  0  0  0  0
  -42.0470   -5.6070   36.9580 N   0  0  0  0  0  0
  -41.6410   -2.5430   31.7040 Cl  0  0  0  0  0  0
  -43.8530   -7.4090   31.5070 Cl  0  0  0  0  0  0
  -42.6040   -6.4970   36.8710 C   0  0  0  0  0  0
  -44.1270   -8.3740   37.7730 C   0  0  0  0  0  0
  -42.6710   -5.0430   31.8540 C   0  0  0  0  0  0
  -41.7470   -5.6360   34.3880 C   0  0  0  0  0  0
  -45.8070  -11.4630   36.5110 C   0  0  0  0  0  0
  -44.4960  -10.5590   34.1910 C   0  0  0  0  0  0
  -46.3970  -15.2540   33.9000 C   0  0  0  0  0  0
  -46.3040  -14.6450   35.2980 C   0  0  0  0  0  0
  -49.7410  -20.4620   32.0550 C   0  0  0  0  0  0
  -46.9010  -18.9560   34.0040 C   0  0  0  0  0  0
  -47.5400  -17.3980   32.3130 C   0  0  0  0  0  0
  -48.0990  -19.8290   33.6830 C   0  0  0  0  0  0
  -48.7550  -18.2620   32.0640 C   0  0  0  0  0  0
  -44.8800   -9.5430   37.6960 N   0  3  0  0  0  0
  -42.7700   -7.9670   34.2760 N   0  0  0  0  0  0
  -45.3390  -12.3390   32.8620 O   0  0  0  0  0  0
  -46.8510  -13.3800   35.2230 O   0  0  0  0  0  0
  -41.4640   -4.3120   33.7870 C   0  0  0  0  0  0
  -41.9390   -4.0440   32.5110 C   0  0  0  0  0  0
  -42.9410   -6.2980   32.4360 C   0  0  0  0  0  0
  -43.4290   -7.8160   36.7070 C   0  0  0  0  0  0
  -42.4850   -6.6150   33.7650 C   0  0  0  0  0  0
  -45.2610  -11.7280   34.1420 C   0  0  0  0  0  0
  -45.9310  -12.2080   35.3090 C   0  0  0  0  0  0
  -43.5260   -8.4920   35.4760 C   0  0  0  0  0  0
  -44.9960  -10.2460   36.5210 C   0  0  0  0  0  0
  -44.3210   -9.7500   35.3900 C   0  0  0  0  0  0
  -47.1180  -17.5460   33.6690 N   0  0  0  0  0  0
  -48.5470  -19.6570   32.3240 N   0  3  0  0  0  0
  -39.4020   -2.8960   34.0930 C   0  0  0  0  0  0
  -46.2083  -12.4766   31.0309 H   0  0  0  0  0  0
  -46.1236  -10.8319   31.7483 H   0  0  0  0  0  0
  -47.2921  -12.0341   32.3934 H   0  0  0  0  0  0
  -45.1731  -16.8732   33.1537 H   0  0  0  0  0  0
  -45.5108  -16.9446   34.9165 H   0  0  0  0  0  0
  -44.0820   -7.8660   38.7250 H   0  0  0  0  0  0
  -43.0440   -4.8430   30.8600 H   0  0  0  0  0  0
  -41.3510   -5.8440   35.3710 H   0  0  0  0  0  0
  -46.3070  -11.7920   37.4100 H   0  0  0  0  0  0
  -44.0050  -10.2360   33.2850 H   0  0  0  0  0  0
  -45.7559  -14.6811   33.2139 H   0  0  0  0  0  0
  -47.4400  -15.2050   33.5541 H   0  0  0  0  0  0
  -46.8650  -15.2701   36.0083 H   0  0  0  0  0  0
  -45.2494  -14.5953   35.6069 H   0  0  0  0  0  0
  -49.5265  -21.5192   32.2702 H   0  0  0  0  0  0
  -50.0260  -20.3534   30.9981 H   0  0  0  0  0  0
  -50.5670  -20.1178   32.6947 H   0  0  0  0  0  0
  -46.6821  -19.0151   35.0804 H   0  0  0  0  0  0
  -46.0286  -19.3060   33.4327 H   0  0  0  0  0  0
  -47.7942  -16.3451   32.1209 H   0  0  0  0  0  0
  -46.7268  -17.7075   31.6400 H   0  0  0  0  0  0
  -47.8304  -20.8864   33.8237 H   0  0  0  0  0  0
  -48.9317  -19.5699   34.3534 H   0  0  0  0  0  0
  -49.5790  -17.9318   32.7136 H   0  0  0  0  0  0
  -49.0596  -18.1717   31.0109 H   0  0  0  0  0  0
  -42.2952   -8.6691   33.5748 H   0  0  0  0  0  0
  -39.0639   -2.1274   34.8036 H   0  0  0  0  0  0
  -39.4289   -2.4712   33.0787 H   0  0  0  0  0  0
  -38.7062   -3.7477   34.1155 H   0  0  0  0  0  0
  -47.7591  -20.0022   31.6385 H   0  0  0  0  0  0
  -45.3986   -9.9230   38.5886 H   0  0  0  0  0  0
  1 22  1  0  0  0
  1 37  1  0  0  0
  1 38  1  0  0  0
  1 39  1  0  0  0
  2 24  1  0  0  0
  2 36  1  0  0  0
  3 40  1  0  0  0
  3 41  1  0  0  0
  3 13  1  0  0  0
  3 34  1  0  0  0
  4  7  3  0  0  0
  5 25  1  0  0  0
  6 26  1  0  0  0
  7 27  1  0  0  0
  8 42  1  0  0  0
  8 20  2  0  0  0
  8 27  1  0  0  0
  9 26  2  0  0  0
  9 25  1  0  0  0
  9 43  1  0  0  0
 10 44  1  0  0  0
 10 24  1  0  0  0
 10 28  2  0  0  0
 11 32  2  0  0  0
 11 45  1  0  0  0
 11 30  1  0  0  0
 12 33  2  0  0  0
 12 46  1  0  0  0
 12 29  1  0  0  0
 13 14  1  0  0  0
 13 47  1  0  0  0
 13 48  1  0  0  0
 14 49  1  0  0  0
 14 50  1  0  0  0
 14 23  1  0  0  0
 15 35  1  0  0  0
 15 51  1  0  0  0
 15 52  1  0  0  0
 15 53  1  0  0  0
 16 54  1  0  0  0
 16 55  1  0  0  0
 16 18  1  0  0  0
 16 34  1  0  0  0
 17 34  1  0  0  0
 17 56  1  0  0  0
 17 57  1  0  0  0
 17 19  1  0  0  0
 18 58  1  0  0  0
 18 59  1  0  0  0
 18 35  1  0  0  0
 19 35  1  0  0  0
 19 60  1  0  0  0
 19 61  1  0  0  0
 20 32  1  0  0  0
 20 67  1  0  0  0
 21 31  1  0  0  0
 21 62  1  0  0  0
 21 28  1  0  0  0
 22 29  1  0  0  0
 23 30  1  0  0  0
 24 25  2  0  0  0
 26 28  1  0  0  0
 27 31  2  0  0  0
 29 30  2  0  0  0
 31 33  1  0  0  0
 32 33  1  0  0  0
 35 66  1  0  0  0
 36 63  1  0  0  0
 36 64  1  0  0  0
 36 65  1  0  0  0
M  CHG  2  20   1  35   1
M  END
> <s_m_source_file>
C:\GitHub\mcce-charges\epik_inhibitors\output-new\Bosutinib\Bosutinib-input.mol2

> <i_m_source_file_index>
1

> <r_epik_Ionization_Penalty>
  4.0324

> <r_epik_Ionization_Penalty_Charging>
  4.0002

> <r_epik_Ionization_Penalty_Neutral>
  0.0322

> <r_epik_State_Penalty>
  4.2323

> <r_epik_Charging_Adjusted_Penalty>
8.23249320741933

> <i_epik_Tot_Q>
2

> <i_epik_Tot_abs_Q>
2

$$$$
DB8
                    3D
 Structure written by MMmdl.
 65 68  0  0  1  0            999 V2000
  -46.2890  -11.8980   31.9630 C   0  0  0  0  0  0
  -40.7340   -3.3480   34.4650 O   0  0  0  0  0  0
  -45.9370  -16.7140   33.9290 C   0  0  0  0  0  0
  -42.0470   -5.6070   36.9580 N   0  0  0  0  0  0
  -41.6410   -2.5430   31.7040 Cl  0  0  0  0  0  0
  -43.8530   -7.4090   31.5070 Cl  0  0  0  0  0  0
  -42.6040   -6.4970   36.8710 C   0  0  0  0  0  0
  -44.1270   -8.3740   37.7730 C   0  0  0  0  0  0
  -42.6710   -5.0430   31.8540 C   0  0  0  0  0  0
  -41.7470   -5.6360   34.3880 C   0  0  0  0  0  0
  -45.8070  -11.4630   36.5110 C   0  0  0  0  0  0
  -44.4960  -10.5590   34.1910 C   0  0  0  0  0  0
  -46.3970  -15.2540   33.9000 C   0  0  0  0  0  0
  -46.3040  -14.6450   35.2980 C   0  0  0  0  0  0
  -49.7410  -20.4620   32.0550 C   0  0  0  0  0  0
  -46.9010  -18.9560   34.0040 C   0  0  0  0  0  0
  -47.5400  -17.3980   32.3130 C   0  0  0  0  0  0
  -48.0990  -19.8290   33.6830 C   0  0  0  0  0  0
  -48.7550  -18.2620   32.0640 C   0  0  0  0  0  0
  -44.8800   -9.5430   37.6960 N   0  0  0  0  0  0
  -42.7700   -7.9670   34.2760 N   0  5  0  0  0  0
  -45.3390  -12.3390   32.8620 O   0  0  0  0  0  0
  -46.8510  -13.3800   35.2230 O   0  0  0  0  0  0
  -41.4640   -4.3120   33.7870 C   0  0  0  0  0  0
  -41.9390   -4.0440   32.5110 C   0  0  0  0  0  0
  -42.9410   -6.2980   32.4360 C   0  0  0  0  0  0
  -43.4290   -7.8160   36.7070 C   0  0  0  0  0  0
  -42.4850   -6.6150   33.7650 C   0  0  0  0  0  0
  -45.2610  -11.7280   34.1420 C   0  0  0  0  0  0
  -45.9310  -12.2080   35.3090 C   0  0  0  0  0  0
  -43.5260   -8.4920   35.4760 C   0  0  0  0  0  0
  -44.9960  -10.2460   36.5210 C   0  0  0  0  0  0
  -44.3210   -9.7500   35.3900 C   0  0  0  0  0  0
  -47.1180  -17.5460   33.6690 N   0  0  0  0  0  0
  -48.5470  -19.6570   32.3240 N   0  3  0  0  0  0
  -39.4020   -2.8960   34.0930 C   0  0  0  0  0  0
  -46.2083  -12.4766   31.0309 H   0  0  0  0  0  0
  -46.1236  -10.8319   31.7483 H   0  0  0  0  0  0
  -47.2921  -12.0341   32.3934 H   0  0  0  0  0  0
  -45.1731  -16.8732   33.1537 H   0  0  0  0  0  0
  -45.5108  -16.9446   34.9165 H   0  0  0  0  0  0
  -44.0820   -7.8660   38.7250 H   0  0  0  0  0  0
  -43.0440   -4.8430   30.8600 H   0  0  0  0  0  0
  -41.3510   -5.8440   35.3710 H   0  0  0  0  0  0
  -46.3070  -11.7920   37.4100 H   0  0  0  0  0  0
  -44.0050  -10.2360   33.2850 H   0  0  0  0  0  0
  -45.7559  -14.6811   33.2139 H   0  0  0  0  0  0
  -47.4400  -15.2050   33.5541 H   0  0  0  0  0  0
  -46.8650  -15.2701   36.0083 H   0  0  0  0  0  0
  -45.2494  -14.5953   35.6069 H   0  0  0  0  0  0
  -49.5265  -21.5192   32.2702 H   0  0  0  0  0  0
  -50.0260  -20.3534   30.9981 H   0  0  0  0  0  0
  -50.5670  -20.1178   32.6947 H   0  0  0  0  0  0
  -46.6821  -19.0151   35.0804 H   0  0  0  0  0  0
  -46.0286  -19.3060   33.4327 H   0  0  0  0  0  0
  -47.7942  -16.3451   32.1209 H   0  0  0  0  0  0
  -46.7268  -17.7075   31.6400 H   0  0  0  0  0  0
  -47.8304  -20.8864   33.8237 H   0  0  0  0  0  0
  -48.9317  -19.5699   34.3534 H   0  0  0  0  0  0
  -49.5790  -17.9318   32.7136 H   0  0  0  0  0  0
  -49.0596  -18.1717   31.0109 H   0  0  0  0  0  0
  -39.0639   -2.1274   34.8036 H   0  0  0  0  0  0
  -39.4289   -2.4712   33.0787 H   0  0  0  0  0  0
  -38.7062   -3.7477   34.1155 H   0  0  0  0  0  0
  -47.7591  -20.0022   31.6385 H   0  0  0  0  0  0
  1 22  1  0  0  0
  1 37  1  0  0  0
  1 38  1  0  0  0
  1 39  1  0  0  0
  2 24  1  0  0  0
  2 36  1  0  0  0
  3 40  1  0  0  0
  3 41  1  0  0  0
  3 13  1  0  0  0
  3 34  1  0  0  0
  4  7  3  0  0  0
  5 25  1  0  0  0
  6 26  1  0  0  0
  7 27  1  0  0  0
  8 42  1  0  0  0
  8 20  2  0  0  0
  8 27  1  0  0  0
  9 26  2  0  0  0
  9 25  1  0  0  0
  9 43  1  0  0  0
 10 44  1  0  0  0
 10 24  1  0  0  0
 10 28  2  0  0  0
 11 32  2  0  0  0
 11 45  1  0  0  0
 11 30  1  0  0  0
 12 33  2  0  0  0
 12 46  1  0  0  0
 12 29  1  0  0  0
 13 14  1  0  0  0
 13 47  1  0  0  0
 13 48  1  0  0  0
 14 49  1  0  0  0
 14 50  1  0  0  0
 14 23  1  0  0  0
 15 35  1  0  0  0
 15 51  1  0  0  0
 15 52  1  0  0  0
 15 53  1  0  0  0
 16 54  1  0  0  0
 16 55  1  0  0  0
 16 18  1  0  0  0
 16 34  1  0  0  0
 17 34  1  0  0  0
 17 56  1  0  0  0
 17 57  1  0  0  0
 17 19  1  0  0  0
 18 58  1  0  0  0
 18 59  1  0  0  0
 18 35  1  0  0  0
 19 35  1  0  0  0
 19 60  1  0  0  0
 19 61  1  0  0  0
 20 32  1  0  0  0
 21 31  1  0  0  0
 21 28  1  0  0  0
 22 29  1  0  0  0
 23 30  1  0  0  0
 24 25  2  0  0  0
 26 28  1  0  0  0
 27 31  2  0  0  0
 29 30  2  0  0  0
 31 33  1  0  0  0
 32 33  1  0  0  0
 35 65  1  0  0  0
 36 62  1  0  0  0
 36 63  1  0  0  0
 36 64  1  0  0  0
M  CHG  2  21  -1  35   1
M  END
> <s_m_source_file>
C:\GitHub\mcce-charges\epik_inhibitors\output-new\Bosutinib\Bosutinib-input.mol2

> <i_m_source_file_index>
1

> <r_epik_Ionization_Penalty>
  4.7965

> <r_epik_Ionization_Penalty_Charging>
  4.7809

> <r_epik_Ionization_Penalty_Neutral>
  0.0156

> <r_epik_State_Penalty>
  4.6725

> <r_epik_Charging_Adjusted_Penalty>
9.45338518106013

> <i_epik_Tot_Q>
0

> <i_epik_Tot_abs_Q>
2

$$$$
DB8
                    3D
 Structure written by MMmdl.
 67 70  0  0  1  0            999 V2000
  -46.2890  -11.8980   31.9630 C   0  0  0  0  0  0
  -40.7340   -3.3480   34.4650 O   0  0  0  0  0  0
  -45.9370  -16.7140   33.9290 C   0  0  0  0  0  0
  -42.0470   -5.6070   36.9580 N   0  0  0  0  0  0
  -41.6410   -2.5430   31.7040 Cl  0  0  0  0  0  0
  -43.8530   -7.4090   31.5070 Cl  0  0  0  0  0  0
  -42.6040   -6.4970   36.8710 C   0  0  0  0  0  0
  -44.1270   -8.3740   37.7730 C   0  0  0  0  0  0
  -42.6710   -5.0430   31.8540 C   0  0  0  0  0  0
  -41.7470   -5.6360   34.3880 C   0  0  0  0  0  0
  -45.8070  -11.4630   36.5110 C   0  0  0  0  0  0
  -44.4960  -10.5590   34.1910 C   0  0  0  0  0  0
  -46.3970  -15.2540   33.9000 C   0  0  0  0  0  0
  -46.3040  -14.6450   35.2980 C   0  0  0  0  0  0
  -49.7410  -20.4620   32.0550 C   0  0  0  0  0  0
  -46.9010  -18.9560   34.0040 C   0  0  0  0  0  0
  -47.5400  -17.3980   32.3130 C   0  0  0  0  0  0
  -48.0990  -19.8290   33.6830 C   0  0  0  0  0  0
  -48.7550  -18.2620   32.0640 C   0  0  0  0  0  0
  -44.8800   -9.5430   37.6960 N   0  0  0  0  0  0
  -42.7700   -7.9670   34.2760 N   0  3  0  0  0  0
  -45.3390  -12.3390   32.8620 O   0  0  0  0  0  0
  -46.8510  -13.3800   35.2230 O   0  0  0  0  0  0
  -41.4640   -4.3120   33.7870 C   0  0  0  0  0  0
  -41.9390   -4.0440   32.5110 C   0  0  0  0  0  0
  -42.9410   -6.2980   32.4360 C   0  0  0  0  0  0
  -43.4290   -7.8160   36.7070 C   0  0  0  0  0  0
  -42.4850   -6.6150   33.7650 C   0  0  0  0  0  0
  -45.2610  -11.7280   34.1420 C   0  0  0  0  0  0
  -45.9310  -12.2080   35.3090 C   0  0  0  0  0  0
  -43.5260   -8.4920   35.4760 C   0  0  0  0  0  0
  -44.9960  -10.2460   36.5210 C   0  0  0  0  0  0
  -44.3210   -9.7500   35.3900 C   0  0  0  0  0  0
  -47.1180  -17.5460   33.6690 N   0  3  0  0  0  0
  -48.5470  -19.6570   32.3240 N   0  0  0  0  0  0
  -39.4020   -2.8960   34.0930 C   0  0  0  0  0  0
  -46.2083  -12.4766   31.0309 H   0  0  0  0  0  0
  -46.1236  -10.8319   31.7483 H   0  0  0  0  0  0
  -47.2921  -12.0341   32.3934 H   0  0  0  0  0  0
  -45.1731  -16.8732   33.1537 H   0  0  0  0  0  0
  -45.5108  -16.9446   34.9165 H   0  0  0  0  0  0
  -44.0820   -7.8660   38.7250 H   0  0  0  0  0  0
  -43.0440   -4.8430   30.8600 H   0  0  0  0  0  0
  -41.3510   -5.8440   35.3710 H   0  0  0  0  0  0
  -46.3070  -11.7920   37.4100 H   0  0  0  0  0  0
  -44.0050  -10.2360   33.2850 H   0  0  0  0  0  0
  -45.7559  -14.6811   33.2139 H   0  0  0  0  0  0
  -47.4400  -15.2050   33.5541 H   0  0  0  0  0  0
  -46.8650  -15.2701   36.0083 H   0  0  0  0  0  0
  -45.2494  -14.5953   35.6069 H   0  0  0  0  0  0
  -49.5265  -21.5192   32.2702 H   0  0  0  0  0  0
  -50.0260  -20.3534   30.9981 H   0  0  0  0  0  0
  -50.5670  -20.1178   32.6947 H   0  0  0  0  0  0
  -46.6821  -19.0151   35.0804 H   0  0  0  0  0  0
  -46.0286  -19.3060   33.4327 H   0  0  0  0  0  0
  -47.7942  -16.3451   32.1209 H   0  0  0  0  0  0
  -46.7268  -17.7075   31.6400 H   0  0  0  0  0  0
  -47.8304  -20.8864   33.8237 H   0  0  0  0  0  0
  -48.9317  -19.5699   34.3534 H   0  0  0  0  0  0
  -49.5790  -17.9318   32.7136 H   0  0  0  0  0  0
  -49.0596  -18.1717   31.0109 H   0  0  0  0  0  0
  -39.0639   -2.1274   34.8036 H   0  0  0  0  0  0
  -39.4289   -2.4712   33.0787 H   0  0  0  0  0  0
  -38.7062   -3.7477   34.1155 H   0  0  0  0  0  0
  -45.3986   -9.9230   38.5886 H   0  0  0  0  0  0
  -42.2952   -8.6691   33.5748 H   0  0  0  0  0  0
  -47.9374  -17.1850   34.3079 H   0  0  0  0  0  0
  1 22  1  0  0  0
  1 37  1  0  0  0
  1 38  1  0  0  0
  1 39  1  0  0  0
  2 24  1  0  0  0
  2 36  1  0  0  0
  3 40  1  0  0  0
  3 41  1  0  0  0
  3 13  1  0  0  0
  3 34  1  0  0  0
  4  7  3  0  0  0
  5 25  1  0  0  0
  6 26  1  0  0  0
  7 27  1  0  0  0
  8 42  1  0  0  0
  8 20  1  0  0  0
  8 27  2  0  0  0
  9 26  2  0  0  0
  9 25  1  0  0  0
  9 43  1  0  0  0
 10 44  1  0  0  0
 10 24  1  0  0  0
 10 28  2  0  0  0
 11 32  2  0  0  0
 11 45  1  0  0  0
 11 30  1  0  0  0
 12 33  2  0  0  0
 12 46  1  0  0  0
 12 29  1  0  0  0
 13 14  1  0  0  0
 13 47  1  0  0  0
 13 48  1  0  0  0
 14 49  1  0  0  0
 14 50  1  0  0  0
 14 23  1  0  0  0
 15 35  1  0  0  0
 15 51  1  0  0  0
 15 52  1  0  0  0
 15 53  1  0  0  0
 16 54  1  0  0  0
 16 55  1  0  0  0
 16 18  1  0  0  0
 16 34  1  0  0  0
 17 34  1  0  0  0
 17 56  1  0  0  0
 17 57  1  0  0  0
 17 19  1  0  0  0
 18 58  1  0  0  0
 18 59  1  0  0  0
 18 35  1  0  0  0
 19 35  1  0  0  0
 19 60  1  0  0  0
 19 61  1  0  0  0
 20 32  1  0  0  0
 20 65  1  0  0  0
 21 31  2  0  0  0
 21 28  1  0  0  0
 21 66  1  0  0  0
 22 29  1  0  0  0
 23 30  1  0  0  0
 24 25  2  0  0  0
 26 28  1  0  0  0
 27 31  1  0  0  0
 29 30  2  0  0  0
 31 33  1  0  0  0
 32 33  1  0  0  0
 34 67  1  0  0  0
 36 62  1  0  0  0
 36 63  1  0  0  0
 36 64  1  0  0  0
M  CHG  2  21   1  34   1
M  END
> <s_m_source_file>
C:\GitHub\mcce-charges\epik_inhibitors\output-new\Bosutinib\Bosutinib-input.mol2

> <i_m_source_file_index>
1

> <r_epik_Ionization_Penalty>
  1.5318

> <r_epik_Ionization_Penalty_Charging>
  0.2855

> <r_epik_Ionization_Penalty_Neutral>
  1.2463

> <r_epik_State_Penalty>
  4.8222

> <r_epik_Charging_Adjusted_Penalty>
5.10765648979946

> <i_epik_Tot_Q>
2

> <i_epik_Tot_abs_Q>
2

> <s_epik_Chemistry_Notes>
This compound has an imine and may undergo hydrolysis.

$$$$
DB8
                    3D
 Structure written by MMmdl.
 67 70  0  0  1  0            999 V2000
  -46.2890  -11.8980   31.9630 C   0  0  0  0  0  0
  -40.7340   -3.3480   34.4650 O   0  0  0  0  0  0
  -45.9370  -16.7140   33.9290 C   0  0  0  0  0  0
  -42.0470   -5.6070   36.9580 N   0  0  0  0  0  0
  -41.6410   -2.5430   31.7040 Cl  0  0  0  0  0  0
  -43.8530   -7.4090   31.5070 Cl  0  0  0  0  0  0
  -42.6040   -6.4970   36.8710 C   0  0  0  0  0  0
  -44.1270   -8.3740   37.7730 C   0  0  0  0  0  0
  -42.6710   -5.0430   31.8540 C   0  0  0  0  0  0
  -41.7470   -5.6360   34.3880 C   0  0  0  0  0  0
  -45.8070  -11.4630   36.5110 C   0  0  0  0  0  0
  -44.4960  -10.5590   34.1910 C   0  0  0  0  0  0
  -46.3970  -15.2540   33.9000 C   0  0  0  0  0  0
  -46.3040  -14.6450   35.2980 C   0  0  0  0  0  0
  -49.7410  -20.4620   32.0550 C   0  0  0  0  0  0
  -46.9010  -18.9560   34.0040 C   0  0  0  0  0  0
  -47.5400  -17.3980   32.3130 C   0  0  0  0  0  0
  -48.0990  -19.8290   33.6830 C   0  0  0  0  0  0
  -48.7550  -18.2620   32.0640 C   0  0  0  0  0  0
  -44.8800   -9.5430   37.6960 N   0  3  0  0  0  0
  -42.7700   -7.9670   34.2760 N   0  0  0  0  0  0
  -45.3390  -12.3390   32.8620 O   0  0  0  0  0  0
  -46.8510  -13.3800   35.2230 O   0  0  0  0  0  0
  -41.4640   -4.3120   33.7870 C   0  0  0  0  0  0
  -41.9390   -4.0440   32.5110 C   0  0  0  0  0  0
  -42.9410   -6.2980   32.4360 C   0  0  0  0  0  0
  -43.4290   -7.8160   36.7070 C   0  0  0  0  0  0
  -42.4850   -6.6150   33.7650 C   0  0  0  0  0  0
  -45.2610  -11.7280   34.1420 C   0  0  0  0  0  0
  -45.9310  -12.2080   35.3090 C   0  0  0  0  0  0
  -43.5260   -8.4920   35.4760 C   0  0  0  0  0  0
  -44.9960  -10.2460   36.5210 C   0  0  0  0  0  0
  -44.3210   -9.7500   35.3900 C   0  0  0  0  0  0
  -47.1180  -17.5460   33.6690 N   0  3  0  0  0  0
  -48.5470  -19.6570   32.3240 N   0  0  0  0  0  0
  -39.4020   -2.8960   34.0930 C   0  0  0  0  0  0
  -46.2083  -12.4766   31.0309 H   0  0  0  0  0  0
  -46.1236  -10.8319   31.7483 H   0  0  0  0  0  0
  -47.2921  -12.0341   32.3934 H   0  0  0  0  0  0
  -45.1731  -16.8732   33.1537 H   0  0  0  0  0  0
  -45.5108  -16.9446   34.9165 H   0  0  0  0  0  0
  -44.0820   -7.8660   38.7250 H   0  0  0  0  0  0
  -43.0440   -4.8430   30.8600 H   0  0  0  0  0  0
  -41.3510   -5.8440   35.3710 H   0  0  0  0  0  0
  -46.3070  -11.7920   37.4100 H   0  0  0  0  0  0
  -44.0050  -10.2360   33.2850 H   0  0  0  0  0  0
  -45.7559  -14.6811   33.2139 H   0  0  0  0  0  0
  -47.4400  -15.2050   33.5541 H   0  0  0  0  0  0
  -46.8650  -15.2701   36.0083 H   0  0  0  0  0  0
  -45.2494  -14.5953   35.6069 H   0  0  0  0  0  0
  -49.5265  -21.5192   32.2702 H   0  0  0  0  0  0
  -50.0260  -20.3534   30.9981 H   0  0  0  0  0  0
  -50.5670  -20.1178   32.6947 H   0  0  0  0  0  0
  -46.6821  -19.0151   35.0804 H   0  0  0  0  0  0
  -46.0286  -19.3060   33.4327 H   0  0  0  0  0  0
  -47.7942  -16.3451   32.1209 H   0  0  0  0  0  0
  -46.7268  -17.7075   31.6400 H   0  0  0  0  0  0
  -47.8304  -20.8864   33.8237 H   0  0  0  0  0  0
  -48.9317  -19.5699   34.3534 H   0  0  0  0  0  0
  -49.5790  -17.9318   32.7136 H   0  0  0  0  0  0
  -49.0596  -18.1717   31.0109 H   0  0  0  0  0  0
  -42.2952   -8.6691   33.5748 H   0  0  0  0  0  0
  -39.0639   -2.1274   34.8036 H   0  0  0  0  0  0
  -39.4289   -2.4712   33.0787 H   0  0  0  0  0  0
  -38.7062   -3.7477   34.1155 H   0  0  0  0  0  0
  -47.9374  -17.1850   34.3079 H   0  0  0  0  0  0
  -45.3986   -9.9230   38.5886 H   0  0  0  0  0  0
  1 22  1  0  0  0
  1 37  1  0  0  0
  1 38  1  0  0  0
  1 39  1  0  0  0
  2 24  1  0  0  0
  2 36  1  0  0  0
  3 40  1  0  0  0
  3 41  1  0  0  0
  3 13  1  0  0  0
  3 34  1  0  0  0
  4  7  3  0  0  0
  5 25  1  0  0  0
  6 26  1  0  0  0
  7 27  1  0  0  0
  8 42  1  0  0  0
  8 20  2  0  0  0
  8 27  1  0  0  0
  9 26  2  0  0  0
  9 25  1  0  0  0
  9 43  1  0  0  0
 10 44  1  0  0  0
 10 24  1  0  0  0
 10 28  2  0  0  0
 11 32  2  0  0  0
 11 45  1  0  0  0
 11 30  1  0  0  0
 12 33  2  0  0  0
 12 46  1  0  0  0
 12 29  1  0  0  0
 13 14  1  0  0  0
 13 47  1  0  0  0
 13 48  1  0  0  0
 14 49  1  0  0  0
 14 50  1  0  0  0
 14 23  1  0  0  0
 15 35  1  0  0  0
 15 51  1  0  0  0
 15 52  1  0  0  0
 15 53  1  0  0  0
 16 54  1  0  0  0
 16 55  1  0  0  0
 16 18  1  0  0  0
 16 34  1  0  0  0
 17 34  1  0  0  0
 17 56  1  0  0  0
 17 57  1  0  0  0
 17 19  1  0  0  0
 18 58  1  0  0  0
 18 59  1  0  0  0
 18 35  1  0  0  0
 19 35  1  0  0  0
 19 60  1  0  0  0
 19 61  1  0  0  0
 20 32  1  0  0  0
 20 67  1  0  0  0
 21 31  1  0  0  0
 21 62  1  0  0  0
 21 28  1  0  0  0
 22 29  1  0  0  0
 23 30  1  0  0  0
 24 25  2  0  0  0
 26 28  1  0  0  0
 27 31  2  0  0  0
 29 30  2  0  0  0
 31 33  1  0  0  0
 32 33  1  0  0  0
 34 66  1  0  0  0
 36 63  1  0  0  0
 36 64  1  0  0  0
 36 65  1  0  0  0
M  CHG  2  20   1  34   1
M  END
> <s_m_source_file>
C:\GitHub\mcce-charges\epik_inhibitors\output-new\Bosutinib\Bosutinib-input.mol2

> <i_m_source_file_index>
1

> <r_epik_Ionization_Penalty>
  4.3981

> <r_epik_Ionization_Penalty_Charging>
  4.3638

> <r_epik_Ionization_Penalty_Neutral>
  0.0343

> <r_epik_State_Penalty>
  5.2126

> <r_epik_Charging_Adjusted_Penalty>
9.57635445919871

> <i_epik_Tot_Q>
2

> <i_epik_Tot_abs_Q>
2

$$$$
DB8
                    3D
 Structure written by MMmdl.
 66 69  0  0  1  0            999 V2000
  -46.2890  -11.8980   31.9630 C   0  0  0  0  0  0
  -40.7340   -3.3480   34.4650 O   0  0  0  0  0  0
  -45.9370  -16.7140   33.9290 C   0  0  0  0  0  0
  -42.0470   -5.6070   36.9580 N   0  0  0  0  0  0
  -41.6410   -2.5430   31.7040 Cl  0  0  0  0  0  0
  -43.8530   -7.4090   31.5070 Cl  0  0  0  0  0  0
  -42.6040   -6.4970   36.8710 C   0  0  0  0  0  0
  -44.1270   -8.3740   37.7730 C   0  0  0  0  0  0
  -42.6710   -5.0430   31.8540 C   0  0  0  0  0  0
  -41.7470   -5.6360   34.3880 C   0  0  0  0  0  0
  -45.8070  -11.4630   36.5110 C   0  0  0  0  0  0
  -44.4960  -10.5590   34.1910 C   0  0  0  0  0  0
  -46.3970  -15.2540   33.9000 C   0  0  0  0  0  0
  -46.3040  -14.6450   35.2980 C   0  0  0  0  0  0
  -49.7410  -20.4620   32.0550 C   0  0  0  0  0  0
  -46.9010  -18.9560   34.0040 C   0  0  0  0  0  0
  -47.5400  -17.3980   32.3130 C   0  0  0  0  0  0
  -48.0990  -19.8290   33.6830 C   0  0  0  0  0  0
  -48.7550  -18.2620   32.0640 C   0  0  0  0  0  0
  -44.8800   -9.5430   37.6960 N   0  0  0  0  0  0
  -42.7700   -7.9670   34.2760 N   0  3  0  0  0  0
  -45.3390  -12.3390   32.8620 O   0  0  0  0  0  0
  -46.8510  -13.3800   35.2230 O   0  0  0  0  0  0
  -41.4640   -4.3120   33.7870 C   0  0  0  0  0  0
  -41.9390   -4.0440   32.5110 C   0  0  0  0  0  0
  -42.9410   -6.2980   32.4360 C   0  0  0  0  0  0
  -43.4290   -7.8160   36.7070 C   0  0  0  0  0  0
  -42.4850   -6.6150   33.7650 C   0  0  0  0  0  0
  -45.2610  -11.7280   34.1420 C   0  0  0  0  0  0
  -45.9310  -12.2080   35.3090 C   0  0  0  0  0  0
  -43.5260   -8.4920   35.4760 C   0  0  0  0  0  0
  -44.9960  -10.2460   36.5210 C   0  0  0  0  0  0
  -44.3210   -9.7500   35.3900 C   0  0  0  0  0  0
  -47.1180  -17.5460   33.6690 N   0  0  0  0  0  0
  -48.5470  -19.6570   32.3240 N   0  0  0  0  0  0
  -39.4020   -2.8960   34.0930 C   0  0  0  0  0  0
  -46.2083  -12.4766   31.0309 H   0  0  0  0  0  0
  -46.1236  -10.8319   31.7483 H   0  0  0  0  0  0
  -47.2921  -12.0341   32.3934 H   0  0  0  0  0  0
  -45.1731  -16.8732   33.1537 H   0  0  0  0  0  0
  -45.5108  -16.9446   34.9165 H   0  0  0  0  0  0
  -44.0820   -7.8660   38.7250 H   0  0  0  0  0  0
  -43.0440   -4.8430   30.8600 H   0  0  0  0  0  0
  -41.3510   -5.8440   35.3710 H   0  0  0  0  0  0
  -46.3070  -11.7920   37.4100 H   0  0  0  0  0  0
  -44.0050  -10.2360   33.2850 H   0  0  0  0  0  0
  -45.7559  -14.6811   33.2139 H   0  0  0  0  0  0
  -47.4400  -15.2050   33.5541 H   0  0  0  0  0  0
  -46.8650  -15.2701   36.0083 H   0  0  0  0  0  0
  -45.2494  -14.5953   35.6069 H   0  0  0  0  0  0
  -49.5265  -21.5192   32.2702 H   0  0  0  0  0  0
  -50.0260  -20.3534   30.9981 H   0  0  0  0  0  0
  -50.5670  -20.1178   32.6947 H   0  0  0  0  0  0
  -46.6821  -19.0151   35.0804 H   0  0  0  0  0  0
  -46.0286  -19.3060   33.4327 H   0  0  0  0  0  0
  -47.7942  -16.3451   32.1209 H   0  0  0  0  0  0
  -46.7268  -17.7075   31.6400 H   0  0  0  0  0  0
  -47.8304  -20.8864   33.8237 H   0  0  0  0  0  0
  -48.9317  -19.5699   34.3534 H   0  0  0  0  0  0
  -49.5790  -17.9318   32.7136 H   0  0  0  0  0  0
  -49.0596  -18.1717   31.0109 H   0  0  0  0  0  0
  -39.0639   -2.1274   34.8036 H   0  0  0  0  0  0
  -39.4289   -2.4712   33.0787 H   0  0  0  0  0  0
  -38.7062   -3.7477   34.1155 H   0  0  0  0  0  0
  -45.3986   -9.9230   38.5886 H   0  0  0  0  0  0
  -42.2952   -8.6691   33.5748 H   0  0  0  0  0  0
  1 22  1  0  0  0
  1 37  1  0  0  0
  1 38  1  0  0  0
  1 39  1  0  0  0
  2 24  1  0  0  0
  2 36  1  0  0  0
  3 40  1  0  0  0
  3 41  1  0  0  0
  3 13  1  0  0  0
  3 34  1  0  0  0
  4  7  3  0  0  0
  5 25  1  0  0  0
  6 26  1  0  0  0
  7 27  1  0  0  0
  8 42  1  0  0  0
  8 20  1  0  0  0
  8 27  2  0  0  0
  9 26  2  0  0  0
  9 25  1  0  0  0
  9 43  1  0  0  0
 10 44  1  0  0  0
 10 24  1  0  0  0
 10 28  2  0  0  0
 11 32  2  0  0  0
 11 45  1  0  0  0
 11 30  1  0  0  0
 12 33  2  0  0  0
 12 46  1  0  0  0
 12 29  1  0  0  0
 13 14  1  0  0  0
 13 47  1  0  0  0
 13 48  1  0  0  0
 14 49  1  0  0  0
 14 50  1  0  0  0
 14 23  1  0  0  0
 15 35  1  0  0  0
 15 51  1  0  0  0
 15 52  1  0  0  0
 15 53  1  0  0  0
 16 54  1  0  0  0
 16 55  1  0  0  0
 16 18  1  0  0  0
 16 34  1  0  0  0
 17 34  1  0  0  0
 17 56  1  0  0  0
 17 57  1  0  0  0
 17 19  1  0  0  0
 18 58  1  0  0  0
 18 59  1  0  0  0
 18 35  1  0  0  0
 19 35  1  0  0  0
 19 60  1  0  0  0
 19 61  1  0  0  0
 20 32  1  0  0  0
 20 65  1  0  0  0
 21 31  2  0  0  0
 21 28  1  0  0  0
 21 66  1  0  0  0
 22 29  1  0  0  0
 23 30  1  0  0  0
 24 25  2  0  0  0
 26 28  1  0  0  0
 27 31  1  0  0  0
 29 30  2  0  0  0
 31 33  1  0  0  0
 32 33  1  0  0  0
 36 62  1  0  0  0
 36 63  1  0  0  0
 36 64  1  0  0  0
M  CHG  1  21   1
M  END
> <s_m_source_file>
C:\GitHub\mcce-charges\epik_inhibitors\output-new\Bosutinib\Bosutinib-input.mol2

> <i_m_source_file_index>
1

> <r_epik_Ionization_Penalty>
  3.1061

> <r_epik_Ionization_Penalty_Charging>
  0.0027

> <r_epik_Ionization_Penalty_Neutral>
  3.1034

> <r_epik_State_Penalty>
  5.2214

> <r_epik_Charging_Adjusted_Penalty>
5.22415206999658

> <i_epik_Tot_Q>
1

> <i_epik_Tot_abs_Q>
1

> <s_epik_Chemistry_Notes>
This compound has an imine and may undergo hydrolysis.

$$$$
DB8
                    3D
 Structure written by MMmdl.
 66 69  0  0  1  0            999 V2000
  -46.2890  -11.8980   31.9630 C   0  0  0  0  0  0
  -40.7340   -3.3480   34.4650 O   0  0  0  0  0  0
  -45.9370  -16.7140   33.9290 C   0  0  0  0  0  0
  -42.0470   -5.6070   36.9580 N   0  0  0  0  0  0
  -41.6410   -2.5430   31.7040 Cl  0  0  0  0  0  0
  -43.8530   -7.4090   31.5070 Cl  0  0  0  0  0  0
  -42.6040   -6.4970   36.8710 C   0  0  0  0  0  0
  -44.1270   -8.3740   37.7730 C   0  0  0  0  0  0
  -42.6710   -5.0430   31.8540 C   0  0  0  0  0  0
  -41.7470   -5.6360   34.3880 C   0  0  0  0  0  0
  -45.8070  -11.4630   36.5110 C   0  0  0  0  0  0
  -44.4960  -10.5590   34.1910 C   0  0  0  0  0  0
  -46.3970  -15.2540   33.9000 C   0  0  0  0  0  0
  -46.3040  -14.6450   35.2980 C   0  0  0  0  0  0
  -49.7410  -20.4620   32.0550 C   0  0  0  0  0  0
  -46.9010  -18.9560   34.0040 C   0  0  0  0  0  0
  -47.5400  -17.3980   32.3130 C   0  0  0  0  0  0
  -48.0990  -19.8290   33.6830 C   0  0  0  0  0  0
  -48.7550  -18.2620   32.0640 C   0  0  0  0  0  0
  -44.8800   -9.5430   37.6960 N   0  3  0  0  0  0
  -42.7700   -7.9670   34.2760 N   0  0  0  0  0  0
  -45.3390  -12.3390   32.8620 O   0  0  0  0  0  0
  -46.8510  -13.3800   35.2230 O   0  0  0  0  0  0
  -41.4640   -4.3120   33.7870 C   0  0  0  0  0  0
  -41.9390   -4.0440   32.5110 C   0  0  0  0  0  0
  -42.9410   -6.2980   32.4360 C   0  0  0  0  0  0
  -43.4290   -7.8160   36.7070 C   0  0  0  0  0  0
  -42.4850   -6.6150   33.7650 C   0  0  0  0  0  0
  -45.2610  -11.7280   34.1420 C   0  0  0  0  0  0
  -45.9310  -12.2080   35.3090 C   0  0  0  0  0  0
  -43.5260   -8.4920   35.4760 C   0  0  0  0  0  0
  -44.9960  -10.2460   36.5210 C   0  0  0  0  0  0
  -44.3210   -9.7500   35.3900 C   0  0  0  0  0  0
  -47.1180  -17.5460   33.6690 N   0  0  0  0  0  0
  -48.5470  -19.6570   32.3240 N   0  0  0  0  0  0
  -39.4020   -2.8960   34.0930 C   0  0  0  0  0  0
  -46.2083  -12.4766   31.0309 H   0  0  0  0  0  0
  -46.1236  -10.8319   31.7483 H   0  0  0  0  0  0
  -47.2921  -12.0341   32.3934 H   0  0  0  0  0  0
  -45.1731  -16.8732   33.1537 H   0  0  0  0  0  0
  -45.5108  -16.9446   34.9165 H   0  0  0  0  0  0
  -44.0820   -7.8660   38.7250 H   0  0  0  0  0  0
  -43.0440   -4.8430   30.8600 H   0  0  0  0  0  0
  -41.3510   -5.8440   35.3710 H   0  0  0  0  0  0
  -46.3070  -11.7920   37.4100 H   0  0  0  0  0  0
  -44.0050  -10.2360   33.2850 H   0  0  0  0  0  0
  -45.7559  -14.6811   33.2139 H   0  0  0  0  0  0
  -47.4400  -15.2050   33.5541 H   0  0  0  0  0  0
  -46.8650  -15.2701   36.0083 H   0  0  0  0  0  0
  -45.2494  -14.5953   35.6069 H   0  0  0  0  0  0
  -49.5265  -21.5192   32.2702 H   0  0  0  0  0  0
  -50.0260  -20.3534   30.9981 H   0  0  0  0  0  0
  -50.5670  -20.1178   32.6947 H   0  0  0  0  0  0
  -46.6821  -19.0151   35.0804 H   0  0  0  0  0  0
  -46.0286  -19.3060   33.4327 H   0  0  0  0  0  0
  -47.7942  -16.3451   32.1209 H   0  0  0  0  0  0
  -46.7268  -17.7075   31.6400 H   0  0  0  0  0  0
  -47.8304  -20.8864   33.8237 H   0  0  0  0  0  0
  -48.9317  -19.5699   34.3534 H   0  0  0  0  0  0
  -49.5790  -17.9318   32.7136 H   0  0  0  0  0  0
  -49.0596  -18.1717   31.0109 H   0  0  0  0  0  0
  -42.2952   -8.6691   33.5748 H   0  0  0  0  0  0
  -39.0639   -2.1274   34.8036 H   0  0  0  0  0  0
  -39.4289   -2.4712   33.0787 H   0  0  0  0  0  0
  -38.7062   -3.7477   34.1155 H   0  0  0  0  0  0
  -45.3986   -9.9230   38.5886 H   0  0  0  0  0  0
  1 22  1  0  0  0
  1 37  1  0  0  0
  1 38  1  0  0  0
  1 39  1  0  0  0
  2 24  1  0  0  0
  2 36  1  0  0  0
  3 40  1  0  0  0
  3 41  1  0  0  0
  3 13  1  0  0  0
  3 34  1  0  0  0
  4  7  3  0  0  0
  5 25  1  0  0  0
  6 26  1  0  0  0
  7 27  1  0  0  0
  8 42  1  0  0  0
  8 20  2  0  0  0
  8 27  1  0  0  0
  9 26  2  0  0  0
  9 25  1  0  0  0
  9 43  1  0  0  0
 10 44  1  0  0  0
 10 24  1  0  0  0
 10 28  2  0  0  0
 11 32  2  0  0  0
 11 45  1  0  0  0
 11 30  1  0  0  0
 12 33  2  0  0  0
 12 46  1  0  0  0
 12 29  1  0  0  0
 13 14  1  0  0  0
 13 47  1  0  0  0
 13 48  1  0  0  0
 14 49  1  0  0  0
 14 50  1  0  0  0
 14 23  1  0  0  0
 15 35  1  0  0  0
 15 51  1  0  0  0
 15 52  1  0  0  0
 15 53  1  0  0  0
 16 54  1  0  0  0
 16 55  1  0  0  0
 16 18  1  0  0  0
 16 34  1  0  0  0
 17 34  1  0  0  0
 17 56  1  0  0  0
 17 57  1  0  0  0
 17 19  1  0  0  0
 18 58  1  0  0  0
 18 59  1  0  0  0
 18 35  1  0  0  0
 19 35  1  0  0  0
 19 60  1  0  0  0
 19 61  1  0  0  0
 20 32  1  0  0  0
 20 66  1  0  0  0
 21 31  1  0  0  0
 21 62  1  0  0  0
 21 28  1  0  0  0
 22 29  1  0  0  0
 23 30  1  0  0  0
 24 25  2  0  0  0
 26 28  1  0  0  0
 27 31  2  0  0  0
 29 30  2  0  0  0
 31 33  1  0  0  0
 32 33  1  0  0  0
 36 63  1  0  0  0
 36 64  1  0  0  0
 36 65  1  0  0  0
M  CHG  1  20   1
M  END
> <s_m_source_file>
C:\GitHub\mcce-charges\epik_inhibitors\output-new\Bosutinib\Bosutinib-input.mol2

> <i_m_source_file_index>
1

> <r_epik_Ionization_Penalty>
  5.8741

> <r_epik_Ionization_Penalty_Charging>
  3.9342

> <r_epik_Ionization_Penalty_Neutral>
  1.9399

> <r_epik_State_Penalty>
  5.4280

> <r_epik_Charging_Adjusted_Penalty>
9.36218943485008

> <i_epik_Tot_Q>
1

> <i_epik_Tot_abs_Q>
1

$$$$
