P06
                    3D
 Structure written by MMmdl.
 54 57  0  0  1  0            999 V2000
    0.3570   -5.1400    5.5770 C   0  0  0  0  0  0
   -1.1670   -3.6100    6.4300 C   0  0  0  0  0  0
   -0.0860   -4.4040    6.6270 N   0  0  0  0  0  0
   -1.8120   -3.5300    5.2090 C   0  0  0  0  0  0
   -0.2210   -5.1200    4.3570 N   0  0  0  0  0  0
   -1.2920   -4.3160    4.2060 C   0  0  0  0  0  0
    1.4600   -5.9590    5.7600 N   0  0  0  0  0  0
   -1.5770   -2.8400    7.6080 C   0  0  0  0  0  0
   -0.5020   -2.7910    8.9580 S   0  0  0  0  0  0
   -1.5910   -1.7820    9.8320 C   0  0  0  0  0  0
   -2.6910   -1.4890    9.1730 N   0  0  0  0  0  0
   -2.6970   -2.0770    7.9220 C   0  0  0  0  0  0
   -1.2900   -1.2790   11.2430 C   0  0  0  0  0  0
   -0.0120   -1.9150   11.8170 C   0  0  0  0  0  0
   -2.4570   -1.6500   12.1830 C   0  0  0  0  0  0
   -1.1420    0.2530   11.2430 C   0  0  0  0  0  0
   -3.8650   -1.8280    7.0970 C   0  0  0  0  0  0
   -5.2730   -0.1910    5.9690 C   0  0  0  0  0  0
   -4.1610   -0.5120    6.7420 C   0  0  0  0  0  0
   -6.1210   -1.2120    5.5330 C   0  0  0  0  0  0
   -4.7240   -2.8460    6.6640 C   0  0  0  0  0  0
   -5.8430   -2.5360    5.8840 C   0  0  0  0  0  0
   -3.3570    0.4840    7.1460 F   0  0  0  0  0  0
   -5.4560    1.2030    5.6650 N   0  5  0  0  0  0
   -6.9750    1.8620    5.2160 S   0  0  0  0  0  0
   -7.0410    1.5170    3.4750 C   0  0  0  0  0  0
   -7.9930    0.3640    1.5710 C   0  0  0  0  0  0
   -7.9570    0.6130    2.9420 C   0  0  0  0  0  0
   -7.1020    1.0170    0.7170 C   0  0  0  0  0  0
   -6.1550    2.1690    2.6160 C   0  0  0  0  0  0
   -6.1820    1.9230    1.2440 C   0  0  0  0  0  0
   -5.2600    3.0450    3.0940 F   0  0  0  0  0  0
   -8.8270   -0.0330    3.7270 F   0  0  0  0  0  0
   -8.0540    1.1580    5.8840 O   0  0  0  0  0  0
   -6.9020    3.3070    5.3240 O   0  0  0  0  0  0
   -2.6690   -2.8920    5.0530 H   0  0  0  0  0  0
   -1.7720   -4.2870    3.2390 H   0  0  0  0  0  0
    1.9571   -6.0012    6.7404 H   0  0  0  0  0  0
    1.8384   -6.5668    4.9249 H   0  0  0  0  0  0
    0.8425   -1.6696   11.1692 H   0  0  0  0  0  0
   -0.1351   -3.0071   11.8637 H   0  0  0  0  0  0
    0.1702   -1.5229   12.8285 H   0  0  0  0  0  0
   -3.3898   -1.2097   11.8008 H   0  0  0  0  0  0
   -2.2537   -1.2602   13.1913 H   0  0  0  0  0  0
   -2.5590   -2.7444   12.2266 H   0  0  0  0  0  0
   -0.3143    0.5414   10.5783 H   0  0  0  0  0  0
   -0.9300    0.6009   12.2648 H   0  0  0  0  0  0
   -2.0759    0.7116   10.8859 H   0  0  0  0  0  0
   -6.9860   -0.9800    4.9290 H   0  0  0  0  0  0
   -4.5220   -3.8720    6.9330 H   0  0  0  0  0  0
   -6.4980   -3.3270    5.5500 H   0  0  0  0  0  0
   -8.7110   -0.3350    1.1690 H   0  0  0  0  0  0
   -7.1250    0.8220   -0.3450 H   0  0  0  0  0  0
   -5.4910    2.4340    0.5900 H   0  0  0  0  0  0
  1  7  1  0  0  0
  1  3  2  0  0  0
  1  5  1  0  0  0
  2  3  1  0  0  0
  2  8  1  0  0  0
  2  4  2  0  0  0
  4 36  1  0  0  0
  4  6  1  0  0  0
  5  6  2  0  0  0
  6 37  1  0  0  0
  7 38  1  0  0  0
  7 39  1  0  0  0
  8 12  2  0  0  0
  8  9  1  0  0  0
  9 10  1  0  0  0
 10 13  1  0  0  0
 10 11  2  0  0  0
 11 12  1  0  0  0
 12 17  1  0  0  0
 13 16  1  0  0  0
 13 14  1  0  0  0
 13 15  1  0  0  0
 14 40  1  0  0  0
 14 41  1  0  0  0
 14 42  1  0  0  0
 15 43  1  0  0  0
 15 44  1  0  0  0
 15 45  1  0  0  0
 16 46  1  0  0  0
 16 47  1  0  0  0
 16 48  1  0  0  0
 17 19  1  0  0  0
 17 21  2  0  0  0
 18 19  2  0  0  0
 18 20  1  0  0  0
 18 24  1  0  0  0
 19 23  1  0  0  0
 20 22  2  0  0  0
 20 49  1  0  0  0
 21 50  1  0  0  0
 21 22  1  0  0  0
 22 51  1  0  0  0
 24 25  1  0  0  0
 25 35  2  0  0  0
 25 34  2  0  0  0
 25 26  1  0  0  0
 26 28  1  0  0  0
 26 30  2  0  0  0
 27 28  2  0  0  0
 27 52  1  0  0  0
 27 29  1  0  0  0
 28 33  1  0  0  0
 29 31  2  0  0  0
 29 53  1  0  0  0
 30 32  1  0  0  0
 30 31  1  0  0  0
 31 54  1  0  0  0
M  CHG  1  24  -1
M  END
> <s_m_source_file>
C:\GitHub\mcce-charges\epik_inhibitors\output-new\Dabrafenib\Dabrafenib-input.mol2

> <i_m_source_file_index>
1

> <r_lp_tautomer_probability>
0.999999987636

> <r_epik_Ionization_Penalty>
  0.2014

> <r_epik_Ionization_Penalty_Charging>
  0.2014

> <r_epik_Ionization_Penalty_Neutral>
  0.0000

> <r_epik_State_Penalty>
  0.1913

> <r_epik_Charging_Adjusted_Penalty>
0.39265627905477

> <i_epik_Tot_Q>
-1

> <i_epik_Tot_abs_Q>
1

$$$$
P06
                    3D
 Structure written by MMmdl.
 55 58  0  0  1  0            999 V2000
    0.3570   -5.1400    5.5770 C   0  0  0  0  0  0
   -1.1670   -3.6100    6.4300 C   0  0  0  0  0  0
   -0.0860   -4.4040    6.6270 N   0  0  0  0  0  0
   -1.8120   -3.5300    5.2090 C   0  0  0  0  0  0
   -0.2210   -5.1200    4.3570 N   0  0  0  0  0  0
   -1.2920   -4.3160    4.2060 C   0  0  0  0  0  0
    1.4600   -5.9590    5.7600 N   0  0  0  0  0  0
   -1.5770   -2.8400    7.6080 C   0  0  0  0  0  0
   -0.5020   -2.7910    8.9580 S   0  0  0  0  0  0
   -1.5910   -1.7820    9.8320 C   0  0  0  0  0  0
   -2.6910   -1.4890    9.1730 N   0  0  0  0  0  0
   -2.6970   -2.0770    7.9220 C   0  0  0  0  0  0
   -1.2900   -1.2790   11.2430 C   0  0  0  0  0  0
   -0.0120   -1.9150   11.8170 C   0  0  0  0  0  0
   -2.4570   -1.6500   12.1830 C   0  0  0  0  0  0
   -1.1420    0.2530   11.2430 C   0  0  0  0  0  0
   -3.8650   -1.8280    7.0970 C   0  0  0  0  0  0
   -5.2730   -0.1910    5.9690 C   0  0  0  0  0  0
   -4.1610   -0.5120    6.7420 C   0  0  0  0  0  0
   -6.1210   -1.2120    5.5330 C   0  0  0  0  0  0
   -4.7240   -2.8460    6.6640 C   0  0  0  0  0  0
   -5.8430   -2.5360    5.8840 C   0  0  0  0  0  0
   -3.3570    0.4840    7.1460 F   0  0  0  0  0  0
   -5.4560    1.2030    5.6650 N   0  0  0  0  0  0
   -6.9750    1.8620    5.2160 S   0  0  0  0  0  0
   -7.0410    1.5170    3.4750 C   0  0  0  0  0  0
   -7.9930    0.3640    1.5710 C   0  0  0  0  0  0
   -7.9570    0.6130    2.9420 C   0  0  0  0  0  0
   -7.1020    1.0170    0.7170 C   0  0  0  0  0  0
   -6.1550    2.1690    2.6160 C   0  0  0  0  0  0
   -6.1820    1.9230    1.2440 C   0  0  0  0  0  0
   -5.2600    3.0450    3.0940 F   0  0  0  0  0  0
   -8.8270   -0.0330    3.7270 F   0  0  0  0  0  0
   -8.0540    1.1580    5.8840 O   0  0  0  0  0  0
   -6.9020    3.3070    5.3240 O   0  0  0  0  0  0
   -2.6690   -2.8920    5.0530 H   0  0  0  0  0  0
   -1.7720   -4.2870    3.2390 H   0  0  0  0  0  0
    1.9571   -6.0012    6.7404 H   0  0  0  0  0  0
    1.8384   -6.5668    4.9249 H   0  0  0  0  0  0
    0.8425   -1.6696   11.1692 H   0  0  0  0  0  0
   -0.1351   -3.0071   11.8637 H   0  0  0  0  0  0
    0.1702   -1.5229   12.8285 H   0  0  0  0  0  0
   -3.3898   -1.2097   11.8008 H   0  0  0  0  0  0
   -2.2537   -1.2602   13.1913 H   0  0  0  0  0  0
   -2.5590   -2.7444   12.2266 H   0  0  0  0  0  0
   -0.3143    0.5414   10.5783 H   0  0  0  0  0  0
   -0.9300    0.6009   12.2648 H   0  0  0  0  0  0
   -2.0759    0.7116   10.8859 H   0  0  0  0  0  0
   -6.9860   -0.9800    4.9290 H   0  0  0  0  0  0
   -4.5220   -3.8720    6.9330 H   0  0  0  0  0  0
   -6.4980   -3.3270    5.5500 H   0  0  0  0  0  0
   -4.5716    1.8539    5.7298 H   0  0  0  0  0  0
   -8.7110   -0.3350    1.1690 H   0  0  0  0  0  0
   -7.1250    0.8220   -0.3450 H   0  0  0  0  0  0
   -5.4910    2.4340    0.5900 H   0  0  0  0  0  0
  1  7  1  0  0  0
  1  3  2  0  0  0
  1  5  1  0  0  0
  2  3  1  0  0  0
  2  8  1  0  0  0
  2  4  2  0  0  0
  4 36  1  0  0  0
  4  6  1  0  0  0
  5  6  2  0  0  0
  6 37  1  0  0  0
  7 38  1  0  0  0
  7 39  1  0  0  0
  8 12  2  0  0  0
  8  9  1  0  0  0
  9 10  1  0  0  0
 10 13  1  0  0  0
 10 11  2  0  0  0
 11 12  1  0  0  0
 12 17  1  0  0  0
 13 16  1  0  0  0
 13 14  1  0  0  0
 13 15  1  0  0  0
 14 40  1  0  0  0
 14 41  1  0  0  0
 14 42  1  0  0  0
 15 43  1  0  0  0
 15 44  1  0  0  0
 15 45  1  0  0  0
 16 46  1  0  0  0
 16 47  1  0  0  0
 16 48  1  0  0  0
 17 19  1  0  0  0
 17 21  2  0  0  0
 18 19  2  0  0  0
 18 20  1  0  0  0
 18 24  1  0  0  0
 19 23  1  0  0  0
 20 22  2  0  0  0
 20 49  1  0  0  0
 21 50  1  0  0  0
 21 22  1  0  0  0
 22 51  1  0  0  0
 24 52  1  0  0  0
 24 25  1  0  0  0
 25 35  2  0  0  0
 25 34  2  0  0  0
 25 26  1  0  0  0
 26 28  1  0  0  0
 26 30  2  0  0  0
 27 28  2  0  0  0
 27 53  1  0  0  0
 27 29  1  0  0  0
 28 33  1  0  0  0
 29 31  2  0  0  0
 29 54  1  0  0  0
 30 32  1  0  0  0
 30 31  1  0  0  0
 31 55  1  0  0  0
M  END
> <s_m_source_file>
C:\GitHub\mcce-charges\epik_inhibitors\output-new\Dabrafenib\Dabrafenib-input.mol2

> <i_m_source_file_index>
1

> <r_lp_tautomer_probability>
0.999999987636

> <r_epik_Ionization_Penalty>
  0.7372

> <r_epik_Ionization_Penalty_Charging>
  0.0000

> <r_epik_Ionization_Penalty_Neutral>
  0.7372

> <r_epik_State_Penalty>
  0.7630

> <r_epik_Charging_Adjusted_Penalty>
0.762977857455299

> <i_epik_Tot_Q>
0

> <i_epik_Tot_abs_Q>
0

$$$$
