@<TRIPOS>MOLECULE
P06
   55    58     1     0     0
SMALL
NO_CHARGES

@<TRIPOS>ATOM
      1  C1         0.3570   -5.1400    5.5770 C.ar      1 P06         0.0000
      2  C2        -1.1670   -3.6100    6.4300 C.ar      1 P06         0.0000
      3  N3        -0.0860   -4.4040    6.6270 N.ar      1 P06         0.0000
      4  C4        -1.8120   -3.5300    5.2090 C.ar      1 P06         0.0000
      5  N6        -0.2210   -5.1200    4.3570 N.ar      1 P06         0.0000
      6  C7        -1.2920   -4.3160    4.2060 C.ar      1 P06         0.0000
      7  N9         1.4600   -5.9590    5.7600 N.pl3     1 P06         0.0000
      8  C12       -1.5770   -2.8400    7.6080 C.ar      1 P06         0.0000
      9  S13       -0.5020   -2.7910    8.9580 S.3       1 P06         0.0000
     10  C14       -1.5910   -1.7820    9.8320 C.ar      1 P06         0.0000
     11  N15       -2.6910   -1.4890    9.1730 N.ar      1 P06         0.0000
     12  C16       -2.6970   -2.0770    7.9220 C.ar      1 P06         0.0000
     13  C17       -1.2900   -1.2790   11.2430 C.3       1 P06         0.0000
     14  C18       -0.0120   -1.9150   11.8170 C.3       1 P06         0.0000
     15  C22       -2.4570   -1.6500   12.1830 C.3       1 P06         0.0000
     16  C26       -1.1420    0.2530   11.2430 C.3       1 P06         0.0000
     17  C30       -3.8650   -1.8280    7.0970 C.ar      1 P06         0.0000
     18  C31       -5.2730   -0.1910    5.9690 C.ar      1 P06         0.0000
     19  C32       -4.1610   -0.5120    6.7420 C.ar      1 P06         0.0000
     20  C33       -6.1210   -1.2120    5.5330 C.ar      1 P06         0.0000
     21  C35       -4.7240   -2.8460    6.6640 C.ar      1 P06         0.0000
     22  C37       -5.8430   -2.5360    5.8840 C.ar      1 P06         0.0000
     23  F39       -3.3570    0.4840    7.1460 F         1 P06         0.0000
     24  N40       -5.4560    1.2030    5.6650 N.pl3     1 P06         0.0000
     25  S42       -6.9750    1.8620    5.2160 S.o2      1 P06         0.0000
     26  C43       -7.0410    1.5170    3.4750 C.ar      1 P06         0.0000
     27  C44       -7.9930    0.3640    1.5710 C.ar      1 P06         0.0000
     28  C46       -7.9570    0.6130    2.9420 C.ar      1 P06         0.0000
     29  C47       -7.1020    1.0170    0.7170 C.ar      1 P06         0.0000
     30  C49       -6.1550    2.1690    2.6160 C.ar      1 P06         0.0000
     31  C50       -6.1820    1.9230    1.2440 C.ar      1 P06         0.0000
     32  F52       -5.2600    3.0450    3.0940 F         1 P06         0.0000
     33  F53       -8.8270   -0.0330    3.7270 F         1 P06         0.0000
     34  O54       -8.0540    1.1580    5.8840 O.2       1 P06         0.0000
     35  O55       -6.9020    3.3070    5.3240 O.2       1 P06         0.0000
     36  H1        -2.6690   -2.8920    5.0530 H         1 P06         0.0000
     37  H2        -1.7720   -4.2870    3.2390 H         1 P06         0.0000
     38  H3         1.6670   -6.4360    4.9060 H         1 P06         0.0000
     39  H4         2.2460   -5.4030    6.0300 H         1 P06         0.0000
     40  H5         0.1680   -1.5270   12.8310 H         1 P06         0.0000
     41  H6        -0.1330   -3.0080   11.8590 H         1 P06         0.0000
     42  H7         0.8430   -1.6650   11.1720 H         1 P06         0.0000
     43  H8        -2.2400   -1.2880   13.1990 H         1 P06         0.0000
     44  H9        -3.3840   -1.1840   11.8180 H         1 P06         0.0000
     45  H10       -2.5790   -2.7430   12.2020 H         1 P06         0.0000
     46  H11       -0.9260    0.6010   12.2640 H         1 P06         0.0000
     47  H12       -0.3170    0.5420   10.5750 H         1 P06         0.0000
     48  H13       -2.0770    0.7120   10.8900 H         1 P06         0.0000
     49  H14       -6.9860   -0.9800    4.9290 H         1 P06         0.0000
     50  H15       -4.5220   -3.8720    6.9330 H         1 P06         0.0000
     51  H16       -6.4980   -3.3270    5.5500 H         1 P06         0.0000
     52  H17       -4.8320    1.4060    4.9100 H         1 P06         0.0000
     53  H18       -8.7110   -0.3350    1.1690 H         1 P06         0.0000
     54  H19       -7.1250    0.8220   -0.3450 H         1 P06         0.0000
     55  H20       -5.4910    2.4340    0.5900 H         1 P06         0.0000
@<TRIPOS>BOND
     1    1    7 1
     2    1    3 ar
     3    2    3 ar
     4    2    8 1
     5    2    4 ar
     6    4   36 1
     7    1    5 ar
     8    5    6 ar
     9    4    6 ar
    10    6   37 1
    11    7   38 1
    12    7   39 1
    13    8   12 ar
    14    8    9 ar
    15    9   10 ar
    16   10   13 1
    17   10   11 ar
    18   11   12 ar
    19   13   16 1
    20   13   14 1
    21   13   15 1
    22   14   40 1
    23   14   41 1
    24   14   42 1
    25   15   43 1
    26   15   44 1
    27   15   45 1
    28   16   46 1
    29   16   47 1
    30   16   48 1
    31   12   17 1
    32   18   19 ar
    33   17   19 ar
    34   19   23 1
    35   20   22 ar
    36   18   20 ar
    37   20   49 1
    38   17   21 ar
    39   21   50 1
    40   21   22 ar
    41   22   51 1
    42   18   24 1
    43   24   52 1
    44   25   35 2
    45   24   25 1
    46   25   34 2
    47   25   26 1
    48   27   28 ar
    49   27   53 1
    50   26   28 ar
    51   28   33 1
    52   29   31 ar
    53   27   29 ar
    54   29   54 1
    55   30   32 1
    56   26   30 ar
    57   30   31 ar
    58   31   55 1
@<TRIPOS>SUBSTRUCTURE
     1 P06         1 GROUP 0 A     ****
