4MK
                    3D
 Structure written by MMmdl.
 75 78  0  0  1  0            999 V2000
  -27.8260    8.7850   -7.1560 C   0  0  0  0  0  0
  -26.6010    7.8280   -7.1320 C   0  0  0  0  0  0
  -26.8650    6.5500   -7.9830 C   0  0  0  0  0  0
  -25.4870    8.5920   -7.6500 O   0  0  0  0  0  0
  -24.1230    8.2730   -7.5080 C   0  0  0  0  0  0
  -23.6270    7.2280   -6.7040 C   0  0  0  0  0  0
  -22.2450    6.9710   -6.5660 C   0  0  0  0  0  0
  -21.7800    5.7880   -5.6670 C   0  0  0  0  0  0
  -22.5470    5.6270   -4.3120 C   0  0  0  0  0  0
  -21.9580    4.4250   -3.5020 C   0  0  0  0  0  0
  -21.9330    3.1980   -4.3490 N   0  3  0  0  0  0
  -21.1750    3.2740   -5.6310 C   0  0  0  0  0  0
  -21.7210    4.4570   -6.4900 C   0  0  0  0  0  0
  -21.3350    7.7610   -7.3130 C   0  0  0  0  0  0
  -19.8020    7.5940   -7.2480 C   0  0  0  0  0  0
  -21.8430    8.7800   -8.1450 C   0  0  0  0  0  0
  -23.2250    9.0640   -8.2320 C   0  0  0  0  0  0
  -23.7730   10.0520   -9.0150 N   0  0  0  0  0  0
  -23.1950   11.2120   -9.4020 C   0  0  0  0  0  0
  -23.7330   12.0060  -10.3610 N   0  0  0  0  0  0
  -23.0750   13.1070  -10.7830 C   0  0  0  0  0  0
  -21.8610   13.4650  -10.1760 C   0  0  0  0  0  0
  -21.0310   14.9090  -10.6640 Cl  0  0  0  0  0  0
  -21.3470   12.6810   -9.1410 C   0  0  0  0  0  0
  -20.1650   12.9820   -8.5220 N   0  0  0  0  0  0
  -19.5070   12.2680   -7.5370 C   0  0  0  0  0  0
  -20.2020   11.4350   -6.6220 C   0  0  0  0  0  0
  -19.5380   10.7450   -5.5920 C   0  0  0  0  0  0
  -18.1570   10.8990   -5.4210 C   0  0  0  0  0  0
  -17.4580   11.7640   -6.2750 C   0  0  0  0  0  0
  -18.1010   12.4280   -7.3470 C   0  0  0  0  0  0
  -17.1110   13.5470   -8.3390 S   0  0  0  0  0  0
  -17.9420   14.5970   -8.9150 O   0  0  0  0  0  0
  -16.0350   14.0540   -7.4940 O   0  0  0  0  0  0
  -16.4330   12.5510   -9.6970 C   0  0  0  0  0  0
  -15.3000   11.6340   -9.1600 C   0  0  0  0  0  0
  -17.5050   11.7990  -10.5280 C   0  0  0  0  0  0
  -22.0520   11.5870   -8.8150 N   0  0  0  0  0  0
  -28.7110    8.2574   -6.7707 H   0  0  0  0  0  0
  -28.0152    9.1126   -8.1889 H   0  0  0  0  0  0
  -27.6185    9.6621   -6.5254 H   0  0  0  0  0  0
  -26.3277    7.5051   -6.1166 H   0  0  0  0  0  0
  -27.7164    5.9970   -7.5596 H   0  0  0  0  0  0
  -25.9701    5.9104   -7.9714 H   0  0  0  0  0  0
  -27.0948    6.8403   -9.0188 H   0  0  0  0  0  0
  -24.3290    6.6010   -6.1740 H   0  0  0  0  0  0
  -20.7619    6.0562   -5.3485 H   0  0  0  0  0  0
  -22.4422    6.5480   -3.7197 H   0  0  0  0  0  0
  -23.6121    5.4398   -4.5135 H   0  0  0  0  0  0
  -20.9326    4.6645   -3.1840 H   0  0  0  0  0  0
  -22.5826    4.2388   -2.6159 H   0  0  0  0  0  0
  -21.4758    2.3720   -3.7845 H   0  0  0  0  0  0
  -20.1085    3.4382   -5.4172 H   0  0  0  0  0  0
  -21.2969    2.3318   -6.1855 H   0  0  0  0  0  0
  -22.7313    4.1960   -6.8379 H   0  0  0  0  0  0
  -21.0578    4.5912   -7.3573 H   0  0  0  0  0  0
  -19.5517    6.7682   -6.5658 H   0  0  0  0  0  0
  -19.3471    8.5251   -6.8791 H   0  0  0  0  0  0
  -19.4147    7.3697   -8.2528 H   0  0  0  0  0  0
  -21.1530    9.3630   -8.7360 H   0  0  0  0  0  0
  -24.7971    9.9430   -9.4013 H   0  0  0  0  0  0
  -23.4800   13.7090  -11.5830 H   0  0  0  0  0  0
  -19.6170   13.8953   -8.7971 H   0  0  0  0  0  0
  -21.2720   11.3280   -6.7200 H   0  0  0  0  0  0
  -20.0940   10.0960   -4.9320 H   0  0  0  0  0  0
  -17.6380   10.3590   -4.6430 H   0  0  0  0  0  0
  -16.4030   11.9280   -6.1110 H   0  0  0  0  0  0
  -15.9489   13.0790  -10.5318 H   0  0  0  0  0  0
  -14.5825   12.2368   -8.5840 H   0  0  0  0  0  0
  -14.7827   11.1570  -10.0055 H   0  0  0  0  0  0
  -15.7326   10.8589   -8.5103 H   0  0  0  0  0  0
  -18.2692   12.5118  -10.8714 H   0  0  0  0  0  0
  -17.9780   11.0269   -9.9034 H   0  0  0  0  0  0
  -17.0281   11.3250  -11.3986 H   0  0  0  0  0  0
  -22.9610    2.9253   -4.6298 H   0  0  0  0  0  0
  1  2  1  0  0  0
  1 39  1  0  0  0
  1 40  1  0  0  0
  1 41  1  0  0  0
  2  3  1  0  0  0
  2  4  1  0  0  0
  2 42  1  0  0  0
  3 43  1  0  0  0
  3 44  1  0  0  0
  3 45  1  0  0  0
  4  5  1  0  0  0
  5  6  2  0  0  0
  5 17  1  0  0  0
  6  7  1  0  0  0
  6 46  1  0  0  0
  7  8  1  0  0  0
  7 14  2  0  0  0
  8  9  1  0  0  0
  8 13  1  0  0  0
  8 47  1  0  0  0
  9 10  1  0  0  0
  9 48  1  0  0  0
  9 49  1  0  0  0
 10 11  1  0  0  0
 10 50  1  0  0  0
 10 51  1  0  0  0
 11 12  1  0  0  0
 11 52  1  0  0  0
 11 75  1  0  0  0
 12 13  1  0  0  0
 12 53  1  0  0  0
 12 54  1  0  0  0
 13 55  1  0  0  0
 13 56  1  0  0  0
 14 15  1  0  0  0
 14 16  1  0  0  0
 15 57  1  0  0  0
 15 58  1  0  0  0
 15 59  1  0  0  0
 16 17  2  0  0  0
 16 60  1  0  0  0
 17 18  1  0  0  0
 18 19  1  0  0  0
 18 61  1  0  0  0
 19 20  2  0  0  0
 19 38  1  0  0  0
 20 21  1  0  0  0
 21 22  2  0  0  0
 21 62  1  0  0  0
 22 23  1  0  0  0
 22 24  1  0  0  0
 24 25  1  0  0  0
 24 38  2  0  0  0
 25 26  1  0  0  0
 25 63  1  0  0  0
 26 27  2  0  0  0
 26 31  1  0  0  0
 27 28  1  0  0  0
 27 64  1  0  0  0
 28 29  2  0  0  0
 28 65  1  0  0  0
 29 30  1  0  0  0
 29 66  1  0  0  0
 30 31  2  0  0  0
 30 67  1  0  0  0
 31 32  1  0  0  0
 32 33  2  0  0  0
 32 34  2  0  0  0
 32 35  1  0  0  0
 35 36  1  0  0  0
 35 37  1  0  0  0
 35 68  1  0  0  0
 36 69  1  0  0  0
 36 70  1  0  0  0
 36 71  1  0  0  0
 37 72  1  0  0  0
 37 73  1  0  0  0
 37 74  1  0  0  0
M  CHG  1  11   1
M  END
> <s_m_source_file>
C:\GitHub\mcce-charges\epik_inhibitors\output-new\Ceritinib\Ceritinib-input.mol2

> <i_m_source_file_index>
1

> <r_lp_tautomer_probability>
0.999998883680446

> <r_epik_Ionization_Penalty>
  0.0015

> <r_epik_Ionization_Penalty_Charging>
  0.0014

> <r_epik_Ionization_Penalty_Neutral>
  0.0001

> <r_epik_State_Penalty>
  0.0010

> <r_epik_Charging_Adjusted_Penalty>
0.00239777155458588

> <i_epik_Tot_Q>
1

> <i_epik_Tot_abs_Q>
1

$$$$
4MK
                    3D
 Structure written by MMmdl.
 74 77  0  0  1  0            999 V2000
  -27.8260    8.7850   -7.1560 C   0  0  0  0  0  0
  -26.6010    7.8280   -7.1320 C   0  0  0  0  0  0
  -26.8650    6.5500   -7.9830 C   0  0  0  0  0  0
  -25.4870    8.5920   -7.6500 O   0  0  0  0  0  0
  -24.1230    8.2730   -7.5080 C   0  0  0  0  0  0
  -23.6270    7.2280   -6.7040 C   0  0  0  0  0  0
  -22.2450    6.9710   -6.5660 C   0  0  0  0  0  0
  -21.7800    5.7880   -5.6670 C   0  0  0  0  0  0
  -22.5470    5.6270   -4.3120 C   0  0  0  0  0  0
  -21.9580    4.4250   -3.5020 C   0  0  0  0  0  0
  -21.9330    3.1980   -4.3490 N   0  0  0  0  0  0
  -21.1750    3.2740   -5.6310 C   0  0  0  0  0  0
  -21.7210    4.4570   -6.4900 C   0  0  0  0  0  0
  -21.3350    7.7610   -7.3130 C   0  0  0  0  0  0
  -19.8020    7.5940   -7.2480 C   0  0  0  0  0  0
  -21.8430    8.7800   -8.1450 C   0  0  0  0  0  0
  -23.2250    9.0640   -8.2320 C   0  0  0  0  0  0
  -23.7730   10.0520   -9.0150 N   0  0  0  0  0  0
  -23.1950   11.2120   -9.4020 C   0  0  0  0  0  0
  -23.7330   12.0060  -10.3610 N   0  0  0  0  0  0
  -23.0750   13.1070  -10.7830 C   0  0  0  0  0  0
  -21.8610   13.4650  -10.1760 C   0  0  0  0  0  0
  -21.0310   14.9090  -10.6640 Cl  0  0  0  0  0  0
  -21.3470   12.6810   -9.1410 C   0  0  0  0  0  0
  -20.1650   12.9820   -8.5220 N   0  0  0  0  0  0
  -19.5070   12.2680   -7.5370 C   0  0  0  0  0  0
  -20.2020   11.4350   -6.6220 C   0  0  0  0  0  0
  -19.5380   10.7450   -5.5920 C   0  0  0  0  0  0
  -18.1570   10.8990   -5.4210 C   0  0  0  0  0  0
  -17.4580   11.7640   -6.2750 C   0  0  0  0  0  0
  -18.1010   12.4280   -7.3470 C   0  0  0  0  0  0
  -17.1110   13.5470   -8.3390 S   0  0  0  0  0  0
  -17.9420   14.5970   -8.9150 O   0  0  0  0  0  0
  -16.0350   14.0540   -7.4940 O   0  0  0  0  0  0
  -16.4330   12.5510   -9.6970 C   0  0  0  0  0  0
  -15.3000   11.6340   -9.1600 C   0  0  0  0  0  0
  -17.5050   11.7990  -10.5280 C   0  0  0  0  0  0
  -22.0520   11.5870   -8.8150 N   0  0  0  0  0  0
  -28.7110    8.2574   -6.7707 H   0  0  0  0  0  0
  -28.0152    9.1126   -8.1889 H   0  0  0  0  0  0
  -27.6185    9.6621   -6.5254 H   0  0  0  0  0  0
  -26.3277    7.5051   -6.1166 H   0  0  0  0  0  0
  -27.7164    5.9970   -7.5596 H   0  0  0  0  0  0
  -25.9701    5.9104   -7.9714 H   0  0  0  0  0  0
  -27.0948    6.8403   -9.0188 H   0  0  0  0  0  0
  -24.3290    6.6010   -6.1740 H   0  0  0  0  0  0
  -20.7619    6.0562   -5.3485 H   0  0  0  0  0  0
  -22.4422    6.5480   -3.7197 H   0  0  0  0  0  0
  -23.6121    5.4398   -4.5135 H   0  0  0  0  0  0
  -20.9326    4.6645   -3.1840 H   0  0  0  0  0  0
  -22.5826    4.2388   -2.6159 H   0  0  0  0  0  0
  -21.4758    2.3720   -3.7845 H   0  0  0  0  0  0
  -20.1085    3.4382   -5.4172 H   0  0  0  0  0  0
  -21.2969    2.3318   -6.1855 H   0  0  0  0  0  0
  -22.7313    4.1960   -6.8379 H   0  0  0  0  0  0
  -21.0578    4.5912   -7.3573 H   0  0  0  0  0  0
  -19.5517    6.7682   -6.5658 H   0  0  0  0  0  0
  -19.3471    8.5251   -6.8791 H   0  0  0  0  0  0
  -19.4147    7.3697   -8.2528 H   0  0  0  0  0  0
  -21.1530    9.3630   -8.7360 H   0  0  0  0  0  0
  -24.7971    9.9430   -9.4013 H   0  0  0  0  0  0
  -23.4800   13.7090  -11.5830 H   0  0  0  0  0  0
  -19.6170   13.8953   -8.7971 H   0  0  0  0  0  0
  -21.2720   11.3280   -6.7200 H   0  0  0  0  0  0
  -20.0940   10.0960   -4.9320 H   0  0  0  0  0  0
  -17.6380   10.3590   -4.6430 H   0  0  0  0  0  0
  -16.4030   11.9280   -6.1110 H   0  0  0  0  0  0
  -15.9489   13.0790  -10.5318 H   0  0  0  0  0  0
  -14.5825   12.2368   -8.5840 H   0  0  0  0  0  0
  -14.7827   11.1570  -10.0055 H   0  0  0  0  0  0
  -15.7326   10.8589   -8.5103 H   0  0  0  0  0  0
  -18.2692   12.5118  -10.8714 H   0  0  0  0  0  0
  -17.9780   11.0269   -9.9034 H   0  0  0  0  0  0
  -17.0281   11.3250  -11.3986 H   0  0  0  0  0  0
  1  2  1  0  0  0
  1 39  1  0  0  0
  1 40  1  0  0  0
  1 41  1  0  0  0
  2  3  1  0  0  0
  2  4  1  0  0  0
  2 42  1  0  0  0
  3 43  1  0  0  0
  3 44  1  0  0  0
  3 45  1  0  0  0
  4  5  1  0  0  0
  5  6  2  0  0  0
  5 17  1  0  0  0
  6  7  1  0  0  0
  6 46  1  0  0  0
  7  8  1  0  0  0
  7 14  2  0  0  0
  8  9  1  0  0  0
  8 13  1  0  0  0
  8 47  1  0  0  0
  9 10  1  0  0  0
  9 48  1  0  0  0
  9 49  1  0  0  0
 10 11  1  0  0  0
 10 50  1  0  0  0
 10 51  1  0  0  0
 11 12  1  0  0  0
 11 52  1  0  0  0
 12 13  1  0  0  0
 12 53  1  0  0  0
 12 54  1  0  0  0
 13 55  1  0  0  0
 13 56  1  0  0  0
 14 15  1  0  0  0
 14 16  1  0  0  0
 15 57  1  0  0  0
 15 58  1  0  0  0
 15 59  1  0  0  0
 16 17  2  0  0  0
 16 60  1  0  0  0
 17 18  1  0  0  0
 18 19  1  0  0  0
 18 61  1  0  0  0
 19 20  2  0  0  0
 19 38  1  0  0  0
 20 21  1  0  0  0
 21 22  2  0  0  0
 21 62  1  0  0  0
 22 23  1  0  0  0
 22 24  1  0  0  0
 24 25  1  0  0  0
 24 38  2  0  0  0
 25 26  1  0  0  0
 25 63  1  0  0  0
 26 27  2  0  0  0
 26 31  1  0  0  0
 27 28  1  0  0  0
 27 64  1  0  0  0
 28 29  2  0  0  0
 28 65  1  0  0  0
 29 30  1  0  0  0
 29 66  1  0  0  0
 30 31  2  0  0  0
 30 67  1  0  0  0
 31 32  1  0  0  0
 32 33  2  0  0  0
 32 34  2  0  0  0
 32 35  1  0  0  0
 35 36  1  0  0  0
 35 37  1  0  0  0
 35 68  1  0  0  0
 36 69  1  0  0  0
 36 70  1  0  0  0
 36 71  1  0  0  0
 37 72  1  0  0  0
 37 73  1  0  0  0
 37 74  1  0  0  0
M  END
> <s_m_source_file>
C:\GitHub\mcce-charges\epik_inhibitors\output-new\Ceritinib\Ceritinib-input.mol2

> <i_m_source_file_index>
1

> <r_lp_tautomer_probability>
0.999998883680446

> <r_epik_Ionization_Penalty>
  3.5862

> <r_epik_Ionization_Penalty_Charging>
  0.0000

> <r_epik_Ionization_Penalty_Neutral>
  3.5862

> <r_epik_State_Penalty>
  3.8262

> <r_epik_Charging_Adjusted_Penalty>
3.82616607354307

> <i_epik_Tot_Q>
0

> <i_epik_Tot_abs_Q>
0

$$$$
4MK
                    3D
 Structure written by MMmdl.
 76 79  0  0  1  0            999 V2000
  -27.8260    8.7850   -7.1560 C   0  0  0  0  0  0
  -26.6010    7.8280   -7.1320 C   0  0  0  0  0  0
  -26.8650    6.5500   -7.9830 C   0  0  0  0  0  0
  -25.4870    8.5920   -7.6500 O   0  0  0  0  0  0
  -24.1230    8.2730   -7.5080 C   0  0  0  0  0  0
  -23.6270    7.2280   -6.7040 C   0  0  0  0  0  0
  -22.2450    6.9710   -6.5660 C   0  0  0  0  0  0
  -21.7800    5.7880   -5.6670 C   0  0  0  0  0  0
  -22.5470    5.6270   -4.3120 C   0  0  0  0  0  0
  -21.9580    4.4250   -3.5020 C   0  0  0  0  0  0
  -21.9330    3.1980   -4.3490 N   0  3  0  0  0  0
  -21.1750    3.2740   -5.6310 C   0  0  0  0  0  0
  -21.7210    4.4570   -6.4900 C   0  0  0  0  0  0
  -21.3350    7.7610   -7.3130 C   0  0  0  0  0  0
  -19.8020    7.5940   -7.2480 C   0  0  0  0  0  0
  -21.8430    8.7800   -8.1450 C   0  0  0  0  0  0
  -23.2250    9.0640   -8.2320 C   0  0  0  0  0  0
  -23.7730   10.0520   -9.0150 N   0  0  0  0  0  0
  -23.1950   11.2120   -9.4020 C   0  0  0  0  0  0
  -23.7330   12.0060  -10.3610 N   0  3  0  0  0  0
  -23.0750   13.1070  -10.7830 C   0  0  0  0  0  0
  -21.8610   13.4650  -10.1760 C   0  0  0  0  0  0
  -21.0310   14.9090  -10.6640 Cl  0  0  0  0  0  0
  -21.3470   12.6810   -9.1410 C   0  0  0  0  0  0
  -20.1650   12.9820   -8.5220 N   0  0  0  0  0  0
  -19.5070   12.2680   -7.5370 C   0  0  0  0  0  0
  -20.2020   11.4350   -6.6220 C   0  0  0  0  0  0
  -19.5380   10.7450   -5.5920 C   0  0  0  0  0  0
  -18.1570   10.8990   -5.4210 C   0  0  0  0  0  0
  -17.4580   11.7640   -6.2750 C   0  0  0  0  0  0
  -18.1010   12.4280   -7.3470 C   0  0  0  0  0  0
  -17.1110   13.5470   -8.3390 S   0  0  0  0  0  0
  -17.9420   14.5970   -8.9150 O   0  0  0  0  0  0
  -16.0350   14.0540   -7.4940 O   0  0  0  0  0  0
  -16.4330   12.5510   -9.6970 C   0  0  0  0  0  0
  -15.3000   11.6340   -9.1600 C   0  0  0  0  0  0
  -17.5050   11.7990  -10.5280 C   0  0  0  0  0  0
  -22.0520   11.5870   -8.8150 N   0  0  0  0  0  0
  -28.7110    8.2574   -6.7707 H   0  0  0  0  0  0
  -28.0152    9.1126   -8.1889 H   0  0  0  0  0  0
  -27.6185    9.6621   -6.5254 H   0  0  0  0  0  0
  -26.3277    7.5051   -6.1166 H   0  0  0  0  0  0
  -27.7164    5.9970   -7.5596 H   0  0  0  0  0  0
  -25.9701    5.9104   -7.9714 H   0  0  0  0  0  0
  -27.0948    6.8403   -9.0188 H   0  0  0  0  0  0
  -24.3290    6.6010   -6.1740 H   0  0  0  0  0  0
  -20.7619    6.0562   -5.3485 H   0  0  0  0  0  0
  -22.4422    6.5480   -3.7197 H   0  0  0  0  0  0
  -23.6121    5.4398   -4.5135 H   0  0  0  0  0  0
  -20.9326    4.6645   -3.1840 H   0  0  0  0  0  0
  -22.5826    4.2388   -2.6159 H   0  0  0  0  0  0
  -21.4758    2.3720   -3.7845 H   0  0  0  0  0  0
  -20.1085    3.4382   -5.4172 H   0  0  0  0  0  0
  -21.2969    2.3318   -6.1855 H   0  0  0  0  0  0
  -22.7313    4.1960   -6.8379 H   0  0  0  0  0  0
  -21.0578    4.5912   -7.3573 H   0  0  0  0  0  0
  -19.5517    6.7682   -6.5658 H   0  0  0  0  0  0
  -19.3471    8.5251   -6.8791 H   0  0  0  0  0  0
  -19.4147    7.3697   -8.2528 H   0  0  0  0  0  0
  -21.1530    9.3630   -8.7360 H   0  0  0  0  0  0
  -24.7971    9.9430   -9.4013 H   0  0  0  0  0  0
  -23.4800   13.7090  -11.5830 H   0  0  0  0  0  0
  -19.6170   13.8953   -8.7971 H   0  0  0  0  0  0
  -21.2720   11.3280   -6.7200 H   0  0  0  0  0  0
  -20.0940   10.0960   -4.9320 H   0  0  0  0  0  0
  -17.6380   10.3590   -4.6430 H   0  0  0  0  0  0
  -16.4030   11.9280   -6.1110 H   0  0  0  0  0  0
  -15.9489   13.0790  -10.5318 H   0  0  0  0  0  0
  -14.5825   12.2368   -8.5840 H   0  0  0  0  0  0
  -14.7827   11.1570  -10.0055 H   0  0  0  0  0  0
  -15.7326   10.8589   -8.5103 H   0  0  0  0  0  0
  -18.2692   12.5118  -10.8714 H   0  0  0  0  0  0
  -17.9780   11.0269   -9.9034 H   0  0  0  0  0  0
  -17.0281   11.3250  -11.3986 H   0  0  0  0  0  0
  -22.9610    2.9253   -4.6298 H   0  0  0  0  0  0
  -24.7101   11.7543  -10.7991 H   0  0  0  0  0  0
  1  2  1  0  0  0
  1 39  1  0  0  0
  1 40  1  0  0  0
  1 41  1  0  0  0
  2  3  1  0  0  0
  2  4  1  0  0  0
  2 42  1  0  0  0
  3 43  1  0  0  0
  3 44  1  0  0  0
  3 45  1  0  0  0
  4  5  1  0  0  0
  5  6  2  0  0  0
  5 17  1  0  0  0
  6  7  1  0  0  0
  6 46  1  0  0  0
  7  8  1  0  0  0
  7 14  2  0  0  0
  8  9  1  0  0  0
  8 13  1  0  0  0
  8 47  1  0  0  0
  9 10  1  0  0  0
  9 48  1  0  0  0
  9 49  1  0  0  0
 10 11  1  0  0  0
 10 50  1  0  0  0
 10 51  1  0  0  0
 11 12  1  0  0  0
 11 52  1  0  0  0
 11 75  1  0  0  0
 12 13  1  0  0  0
 12 53  1  0  0  0
 12 54  1  0  0  0
 13 55  1  0  0  0
 13 56  1  0  0  0
 14 15  1  0  0  0
 14 16  1  0  0  0
 15 57  1  0  0  0
 15 58  1  0  0  0
 15 59  1  0  0  0
 16 17  2  0  0  0
 16 60  1  0  0  0
 17 18  1  0  0  0
 18 19  1  0  0  0
 18 61  1  0  0  0
 19 20  2  0  0  0
 19 38  1  0  0  0
 20 21  1  0  0  0
 20 76  1  0  0  0
 21 22  2  0  0  0
 21 62  1  0  0  0
 22 23  1  0  0  0
 22 24  1  0  0  0
 24 25  1  0  0  0
 24 38  2  0  0  0
 25 26  1  0  0  0
 25 63  1  0  0  0
 26 27  2  0  0  0
 26 31  1  0  0  0
 27 28  1  0  0  0
 27 64  1  0  0  0
 28 29  2  0  0  0
 28 65  1  0  0  0
 29 30  1  0  0  0
 29 66  1  0  0  0
 30 31  2  0  0  0
 30 67  1  0  0  0
 31 32  1  0  0  0
 32 33  2  0  0  0
 32 34  2  0  0  0
 32 35  1  0  0  0
 35 36  1  0  0  0
 35 37  1  0  0  0
 35 68  1  0  0  0
 36 69  1  0  0  0
 36 70  1  0  0  0
 36 71  1  0  0  0
 37 72  1  0  0  0
 37 73  1  0  0  0
 37 74  1  0  0  0
M  CHG  2  11   1  20   1
M  END
> <s_m_source_file>
C:\GitHub\mcce-charges\epik_inhibitors\output-new\Ceritinib\Ceritinib-input.mol2

> <i_m_source_file_index>
1

> <r_epik_Ionization_Penalty>
  5.0018

> <r_epik_Ionization_Penalty_Charging>
  5.0001

> <r_epik_Ionization_Penalty_Neutral>
  0.0017

> <r_epik_State_Penalty>
  5.3349

> <r_epik_Charging_Adjusted_Penalty>
10.3350503601464

> <i_epik_Tot_Q>
2

> <i_epik_Tot_abs_Q>
2

$$$$
