0WN
                    3D
 Structure written by MMmdl.
 62 65  0  0  1  0            999 V2000
   53.1790   -1.6160  -21.7290 C   0  0  0  0  0  0
   52.8410   -0.6260  -22.6090 N   0  0  0  0  0  0
   52.7050   -1.5670  -20.4430 N   0  0  0  0  0  0
   52.0300    0.4280  -22.2380 C   0  0  0  0  0  0
   51.9030   -0.5230  -20.0530 C   0  0  0  0  0  0
   51.5410    0.5000  -20.9270 C   0  0  0  0  0  0
   50.2450    1.5230  -19.1350 C   0  0  0  0  0  0
   50.7090    1.5350  -20.4530 C   0  0  0  0  0  0
   50.6490    0.4930  -18.2850 C   0  0  0  0  0  0
   51.4660   -0.5230  -18.7560 C   0  0  0  0  0  0
   51.6260    1.3250  -23.2670 N   0  0  0  0  0  0
   51.7710   -0.5620  -26.5420 C   0  0  0  0  0  0
   51.7250    0.5220  -27.4050 C   0  0  0  0  0  0
   51.6990   -0.3420  -25.1660 C   0  0  0  0  0  0
   51.6090    1.8130  -26.9140 C   0  0  0  0  0  0
   51.5900    0.9650  -24.6560 C   0  0  0  0  0  0
   51.5430    2.0300  -25.5510 C   0  0  0  0  0  0
   51.7880    0.3220  -28.7120 F   0  0  0  0  0  0
   51.9050   -2.1620  -27.2040 Cl  0  0  0  0  0  0
   50.2140    0.4870  -16.9920 O   0  0  0  0  0  0
   50.7250   -0.3450  -15.9420 C   0  0  2  0  0  0
   50.3270   -1.8270  -16.0470 C   0  0  0  0  0  0
   49.7230   -2.2430  -14.8260 O   0  0  0  0  0  0
   49.1970   -1.0530  -14.2520 C   0  0  0  0  0  0
   50.1460    0.0720  -14.6150 C   0  0  0  0  0  0
   49.4570    2.5630  -18.5470 N   0  0  0  0  0  0
   49.5680    3.9570  -18.7480 C   0  0  0  0  0  0
   48.6750    4.8840  -17.9680 C   0  0  0  0  0  0
   50.3610    4.4170  -19.5490 O   0  0  0  0  0  0
   49.0260    6.3970  -18.1540 C   0  0  0  0  0  0
   47.9020    7.4640  -18.1670 C   0  0  0  0  0  0
   47.9490    8.4150  -19.3120 N   0  3  0  0  0  0
   47.4780    7.8010  -20.5840 C   0  0  0  0  0  0
   47.1870    9.6590  -19.0290 C   0  0  0  0  0  0
   53.8140   -2.4300  -22.0440 H   0  0  0  0  0  0
   50.4280    2.3420  -21.1130 H   0  0  0  0  0  0
   51.7610   -1.3230  -18.0930 H   0  0  0  0  0  0
   51.3211    2.3511  -23.0137 H   0  0  0  0  0  0
   51.7270   -1.1810  -24.4870 H   0  0  0  0  0  0
   51.5700    2.6490  -27.5970 H   0  0  0  0  0  0
   51.4540    3.0390  -25.1750 H   0  0  0  0  0  0
   51.8047   -0.1759  -16.0668 H   0  0  0  0  0  0
   49.6123   -1.9571  -16.8730 H   0  0  0  0  0  0
   51.2236   -2.4348  -16.2387 H   0  0  0  0  0  0
   48.1935   -0.8616  -14.6600 H   0  0  0  0  0  0
   49.1327   -1.1699  -13.1601 H   0  0  0  0  0  0
   50.9565    0.1813  -13.8794 H   0  0  0  0  0  0
   49.6223    1.0326  -14.7290 H   0  0  0  0  0  0
   48.6498    2.3106  -17.8436 H   0  0  0  0  0  0
   47.6325    4.7470  -18.2912 H   0  0  0  0  0  0
   48.7590    4.6573  -16.8949 H   0  0  0  0  0  0
   49.6883    6.7227  -17.3384 H   0  0  0  0  0  0
   49.5350    6.5394  -19.1187 H   0  0  0  0  0  0
   46.9229    6.9646  -18.2127 H   0  0  0  0  0  0
   47.9617    8.0707  -17.2514 H   0  0  0  0  0  0
   48.0496    6.8821  -20.7813 H   0  0  0  0  0  0
   47.6276    8.5106  -21.4111 H   0  0  0  0  0  0
   46.4088    7.5567  -20.4993 H   0  0  0  0  0  0
   47.5446   10.1019  -18.0877 H   0  0  0  0  0  0
   46.1168    9.4210  -18.9390 H   0  0  0  0  0  0
   47.3356   10.3749  -19.8508 H   0  0  0  0  0  0
   49.0086    8.6807  -19.4411 H   0  0  0  0  0  0
  1  3  2  0  0  0
  1 35  1  0  0  0
  1  2  1  0  0  0
  2  4  2  0  0  0
  3  5  1  0  0  0
  4  6  1  0  0  0
  4 11  1  0  0  0
  5 10  2  0  0  0
  5  6  1  0  0  0
  6  8  2  0  0  0
  7 26  1  0  0  0
  7  9  2  0  0  0
  7  8  1  0  0  0
  8 36  1  0  0  0
  9 20  1  0  0  0
  9 10  1  0  0  0
 10 37  1  0  0  0
 11 38  1  0  0  0
 11 16  1  0  0  0
 12 14  2  0  0  0
 12 13  1  0  0  0
 12 19  1  0  0  0
 13 15  2  0  0  0
 13 18  1  0  0  0
 14 16  1  0  0  0
 14 39  1  0  0  0
 15 17  1  0  0  0
 15 40  1  0  0  0
 16 17  2  0  0  0
 17 41  1  0  0  0
 20 21  1  0  0  0
 21 25  1  0  0  0
 21 42  1  0  0  0
 21 22  1  0  0  0
 22 23  1  0  0  0
 22 43  1  0  0  0
 22 44  1  0  0  0
 23 24  1  0  0  0
 24 45  1  0  0  0
 24 46  1  0  0  0
 24 25  1  0  0  0
 25 47  1  0  0  0
 25 48  1  0  0  0
 26 49  1  0  0  0
 26 27  1  0  0  0
 27 28  1  0  0  0
 27 29  2  0  0  0
 28 50  1  0  0  0
 28 51  1  0  0  0
 28 30  1  0  0  0
 30 52  1  0  0  0
 30 53  1  0  0  0
 30 31  1  0  0  0
 31 54  1  0  0  0
 31 55  1  0  0  0
 31 32  1  0  0  0
 32 34  1  0  0  0
 32 33  1  0  0  0
 32 62  1  0  0  0
 33 56  1  0  0  0
 33 57  1  0  0  0
 33 58  1  0  0  0
 34 59  1  0  0  0
 34 60  1  0  0  0
 34 61  1  0  0  0
M  CHG  1  32   1
M  END
> <s_m_source_file>
C:\GitHub\mcce-charges\epik_inhibitors\output-new\Afatinib\Afatinib-input.mol2

> <i_m_source_file_index>
1

> <r_lp_tautomer_probability>
0.999978000241998

> <r_epik_Ionization_Penalty>
  0.0083

> <r_epik_Ionization_Penalty_Charging>
  0.0076

> <r_epik_Ionization_Penalty_Neutral>
  0.0007

> <r_epik_State_Penalty>
  0.0064

> <r_epik_Charging_Adjusted_Penalty>
0.0139791523817095

> <i_epik_Tot_Q>
1

> <i_epik_Tot_abs_Q>
1

$$$$
0WN
                    3D
 Structure written by MMmdl.
 61 64  0  0  1  0            999 V2000
   53.1790   -1.6160  -21.7290 C   0  0  0  0  0  0
   52.8410   -0.6260  -22.6090 N   0  0  0  0  0  0
   52.7050   -1.5670  -20.4430 N   0  0  0  0  0  0
   52.0300    0.4280  -22.2380 C   0  0  0  0  0  0
   51.9030   -0.5230  -20.0530 C   0  0  0  0  0  0
   51.5410    0.5000  -20.9270 C   0  0  0  0  0  0
   50.2450    1.5230  -19.1350 C   0  0  0  0  0  0
   50.7090    1.5350  -20.4530 C   0  0  0  0  0  0
   50.6490    0.4930  -18.2850 C   0  0  0  0  0  0
   51.4660   -0.5230  -18.7560 C   0  0  0  0  0  0
   51.6260    1.3250  -23.2670 N   0  0  0  0  0  0
   51.7710   -0.5620  -26.5420 C   0  0  0  0  0  0
   51.7250    0.5220  -27.4050 C   0  0  0  0  0  0
   51.6990   -0.3420  -25.1660 C   0  0  0  0  0  0
   51.6090    1.8130  -26.9140 C   0  0  0  0  0  0
   51.5900    0.9650  -24.6560 C   0  0  0  0  0  0
   51.5430    2.0300  -25.5510 C   0  0  0  0  0  0
   51.7880    0.3220  -28.7120 F   0  0  0  0  0  0
   51.9050   -2.1620  -27.2040 Cl  0  0  0  0  0  0
   50.2140    0.4870  -16.9920 O   0  0  0  0  0  0
   50.7250   -0.3450  -15.9420 C   0  0  2  0  0  0
   50.3270   -1.8270  -16.0470 C   0  0  0  0  0  0
   49.7230   -2.2430  -14.8260 O   0  0  0  0  0  0
   49.1970   -1.0530  -14.2520 C   0  0  0  0  0  0
   50.1460    0.0720  -14.6150 C   0  0  0  0  0  0
   49.4570    2.5630  -18.5470 N   0  0  0  0  0  0
   49.5680    3.9570  -18.7480 C   0  0  0  0  0  0
   48.6750    4.8840  -17.9680 C   0  0  0  0  0  0
   50.3610    4.4170  -19.5490 O   0  0  0  0  0  0
   49.0260    6.3970  -18.1540 C   0  0  0  0  0  0
   47.9020    7.4640  -18.1670 C   0  0  0  0  0  0
   47.9490    8.4150  -19.3120 N   0  0  0  0  0  0
   47.4780    7.8010  -20.5840 C   0  0  0  0  0  0
   47.1870    9.6590  -19.0290 C   0  0  0  0  0  0
   53.8140   -2.4300  -22.0440 H   0  0  0  0  0  0
   50.4280    2.3420  -21.1130 H   0  0  0  0  0  0
   51.7610   -1.3230  -18.0930 H   0  0  0  0  0  0
   51.3211    2.3511  -23.0137 H   0  0  0  0  0  0
   51.7270   -1.1810  -24.4870 H   0  0  0  0  0  0
   51.5700    2.6490  -27.5970 H   0  0  0  0  0  0
   51.4540    3.0390  -25.1750 H   0  0  0  0  0  0
   51.8047   -0.1759  -16.0668 H   0  0  0  0  0  0
   49.6123   -1.9571  -16.8730 H   0  0  0  0  0  0
   51.2236   -2.4348  -16.2387 H   0  0  0  0  0  0
   48.1935   -0.8616  -14.6600 H   0  0  0  0  0  0
   49.1327   -1.1699  -13.1601 H   0  0  0  0  0  0
   50.9565    0.1813  -13.8794 H   0  0  0  0  0  0
   49.6223    1.0326  -14.7290 H   0  0  0  0  0  0
   48.6498    2.3106  -17.8436 H   0  0  0  0  0  0
   47.6325    4.7470  -18.2912 H   0  0  0  0  0  0
   48.7590    4.6573  -16.8949 H   0  0  0  0  0  0
   49.6883    6.7227  -17.3384 H   0  0  0  0  0  0
   49.5350    6.5394  -19.1187 H   0  0  0  0  0  0
   46.9229    6.9646  -18.2127 H   0  0  0  0  0  0
   47.9617    8.0707  -17.2514 H   0  0  0  0  0  0
   48.0496    6.8821  -20.7813 H   0  0  0  0  0  0
   47.6276    8.5106  -21.4111 H   0  0  0  0  0  0
   46.4088    7.5567  -20.4993 H   0  0  0  0  0  0
   47.5446   10.1019  -18.0877 H   0  0  0  0  0  0
   46.1168    9.4210  -18.9390 H   0  0  0  0  0  0
   47.3356   10.3749  -19.8508 H   0  0  0  0  0  0
  1  3  2  0  0  0
  1 35  1  0  0  0
  1  2  1  0  0  0
  2  4  2  0  0  0
  3  5  1  0  0  0
  4  6  1  0  0  0
  4 11  1  0  0  0
  5 10  2  0  0  0
  5  6  1  0  0  0
  6  8  2  0  0  0
  7 26  1  0  0  0
  7  9  2  0  0  0
  7  8  1  0  0  0
  8 36  1  0  0  0
  9 20  1  0  0  0
  9 10  1  0  0  0
 10 37  1  0  0  0
 11 38  1  0  0  0
 11 16  1  0  0  0
 12 14  2  0  0  0
 12 13  1  0  0  0
 12 19  1  0  0  0
 13 15  2  0  0  0
 13 18  1  0  0  0
 14 16  1  0  0  0
 14 39  1  0  0  0
 15 17  1  0  0  0
 15 40  1  0  0  0
 16 17  2  0  0  0
 17 41  1  0  0  0
 20 21  1  0  0  0
 21 25  1  0  0  0
 21 42  1  0  0  0
 21 22  1  0  0  0
 22 23  1  0  0  0
 22 43  1  0  0  0
 22 44  1  0  0  0
 23 24  1  0  0  0
 24 45  1  0  0  0
 24 46  1  0  0  0
 24 25  1  0  0  0
 25 47  1  0  0  0
 25 48  1  0  0  0
 26 49  1  0  0  0
 26 27  1  0  0  0
 27 28  1  0  0  0
 27 29  2  0  0  0
 28 50  1  0  0  0
 28 51  1  0  0  0
 28 30  1  0  0  0
 30 52  1  0  0  0
 30 53  1  0  0  0
 30 31  1  0  0  0
 31 54  1  0  0  0
 31 55  1  0  0  0
 31 32  1  0  0  0
 32 34  1  0  0  0
 32 33  1  0  0  0
 33 56  1  0  0  0
 33 57  1  0  0  0
 33 58  1  0  0  0
 34 59  1  0  0  0
 34 60  1  0  0  0
 34 61  1  0  0  0
M  END
> <s_m_source_file>
C:\GitHub\mcce-charges\epik_inhibitors\output-new\Afatinib\Afatinib-input.mol2

> <i_m_source_file_index>
1

> <r_lp_tautomer_probability>
0.999978000241998

> <r_epik_Ionization_Penalty>
  2.5856

> <r_epik_Ionization_Penalty_Charging>
  0.0000

> <r_epik_Ionization_Penalty_Neutral>
  2.5856

> <r_epik_State_Penalty>
  2.7565

> <r_epik_Charging_Adjusted_Penalty>
2.75645173762549

> <i_epik_Tot_Q>
0

> <i_epik_Tot_abs_Q>
0

$$$$
0WN
                    3D
 Structure written by MMmdl.
 63 66  0  0  1  0            999 V2000
   53.1790   -1.6160  -21.7290 C   0  0  0  0  0  0
   52.8410   -0.6260  -22.6090 N   0  0  0  0  0  0
   52.7050   -1.5670  -20.4430 N   0  3  0  0  0  0
   52.0300    0.4280  -22.2380 C   0  0  0  0  0  0
   51.9030   -0.5230  -20.0530 C   0  0  0  0  0  0
   51.5410    0.5000  -20.9270 C   0  0  0  0  0  0
   50.2450    1.5230  -19.1350 C   0  0  0  0  0  0
   50.7090    1.5350  -20.4530 C   0  0  0  0  0  0
   50.6490    0.4930  -18.2850 C   0  0  0  0  0  0
   51.4660   -0.5230  -18.7560 C   0  0  0  0  0  0
   51.6260    1.3250  -23.2670 N   0  0  0  0  0  0
   51.7710   -0.5620  -26.5420 C   0  0  0  0  0  0
   51.7250    0.5220  -27.4050 C   0  0  0  0  0  0
   51.6990   -0.3420  -25.1660 C   0  0  0  0  0  0
   51.6090    1.8130  -26.9140 C   0  0  0  0  0  0
   51.5900    0.9650  -24.6560 C   0  0  0  0  0  0
   51.5430    2.0300  -25.5510 C   0  0  0  0  0  0
   51.7880    0.3220  -28.7120 F   0  0  0  0  0  0
   51.9050   -2.1620  -27.2040 Cl  0  0  0  0  0  0
   50.2140    0.4870  -16.9920 O   0  0  0  0  0  0
   50.7250   -0.3450  -15.9420 C   0  0  2  0  0  0
   50.3270   -1.8270  -16.0470 C   0  0  0  0  0  0
   49.7230   -2.2430  -14.8260 O   0  0  0  0  0  0
   49.1970   -1.0530  -14.2520 C   0  0  0  0  0  0
   50.1460    0.0720  -14.6150 C   0  0  0  0  0  0
   49.4570    2.5630  -18.5470 N   0  0  0  0  0  0
   49.5680    3.9570  -18.7480 C   0  0  0  0  0  0
   48.6750    4.8840  -17.9680 C   0  0  0  0  0  0
   50.3610    4.4170  -19.5490 O   0  0  0  0  0  0
   49.0260    6.3970  -18.1540 C   0  0  0  0  0  0
   47.9020    7.4640  -18.1670 C   0  0  0  0  0  0
   47.9490    8.4150  -19.3120 N   0  3  0  0  0  0
   47.4780    7.8010  -20.5840 C   0  0  0  0  0  0
   47.1870    9.6590  -19.0290 C   0  0  0  0  0  0
   53.8140   -2.4300  -22.0440 H   0  0  0  0  0  0
   50.4280    2.3420  -21.1130 H   0  0  0  0  0  0
   51.7610   -1.3230  -18.0930 H   0  0  0  0  0  0
   51.3211    2.3511  -23.0137 H   0  0  0  0  0  0
   51.7270   -1.1810  -24.4870 H   0  0  0  0  0  0
   51.5700    2.6490  -27.5970 H   0  0  0  0  0  0
   51.4540    3.0390  -25.1750 H   0  0  0  0  0  0
   51.8047   -0.1759  -16.0668 H   0  0  0  0  0  0
   49.6123   -1.9571  -16.8730 H   0  0  0  0  0  0
   51.2236   -2.4348  -16.2387 H   0  0  0  0  0  0
   48.1935   -0.8616  -14.6600 H   0  0  0  0  0  0
   49.1327   -1.1699  -13.1601 H   0  0  0  0  0  0
   50.9565    0.1813  -13.8794 H   0  0  0  0  0  0
   49.6223    1.0326  -14.7290 H   0  0  0  0  0  0
   48.6498    2.3106  -17.8436 H   0  0  0  0  0  0
   47.6325    4.7470  -18.2912 H   0  0  0  0  0  0
   48.7590    4.6573  -16.8949 H   0  0  0  0  0  0
   49.6883    6.7227  -17.3384 H   0  0  0  0  0  0
   49.5350    6.5394  -19.1187 H   0  0  0  0  0  0
   46.9229    6.9646  -18.2127 H   0  0  0  0  0  0
   47.9617    8.0707  -17.2514 H   0  0  0  0  0  0
   48.0496    6.8821  -20.7813 H   0  0  0  0  0  0
   47.6276    8.5106  -21.4111 H   0  0  0  0  0  0
   46.4088    7.5567  -20.4993 H   0  0  0  0  0  0
   47.5446   10.1019  -18.0877 H   0  0  0  0  0  0
   46.1168    9.4210  -18.9390 H   0  0  0  0  0  0
   47.3356   10.3749  -19.8508 H   0  0  0  0  0  0
   49.0086    8.6807  -19.4411 H   0  0  0  0  0  0
   52.9677   -2.3618  -19.7293 H   0  0  0  0  0  0
  1  3  2  0  0  0
  1 35  1  0  0  0
  1  2  1  0  0  0
  2  4  2  0  0  0
  3  5  1  0  0  0
  3 63  1  0  0  0
  4  6  1  0  0  0
  4 11  1  0  0  0
  5 10  2  0  0  0
  5  6  1  0  0  0
  6  8  2  0  0  0
  7 26  1  0  0  0
  7  9  2  0  0  0
  7  8  1  0  0  0
  8 36  1  0  0  0
  9 20  1  0  0  0
  9 10  1  0  0  0
 10 37  1  0  0  0
 11 38  1  0  0  0
 11 16  1  0  0  0
 12 14  2  0  0  0
 12 13  1  0  0  0
 12 19  1  0  0  0
 13 15  2  0  0  0
 13 18  1  0  0  0
 14 16  1  0  0  0
 14 39  1  0  0  0
 15 17  1  0  0  0
 15 40  1  0  0  0
 16 17  2  0  0  0
 17 41  1  0  0  0
 20 21  1  0  0  0
 21 25  1  0  0  0
 21 42  1  0  0  0
 21 22  1  0  0  0
 22 23  1  0  0  0
 22 43  1  0  0  0
 22 44  1  0  0  0
 23 24  1  0  0  0
 24 45  1  0  0  0
 24 46  1  0  0  0
 24 25  1  0  0  0
 25 47  1  0  0  0
 25 48  1  0  0  0
 26 49  1  0  0  0
 26 27  1  0  0  0
 27 28  1  0  0  0
 27 29  2  0  0  0
 28 50  1  0  0  0
 28 51  1  0  0  0
 28 30  1  0  0  0
 30 52  1  0  0  0
 30 53  1  0  0  0
 30 31  1  0  0  0
 31 54  1  0  0  0
 31 55  1  0  0  0
 31 32  1  0  0  0
 32 34  1  0  0  0
 32 33  1  0  0  0
 32 62  1  0  0  0
 33 56  1  0  0  0
 33 57  1  0  0  0
 33 58  1  0  0  0
 34 59  1  0  0  0
 34 60  1  0  0  0
 34 61  1  0  0  0
M  CHG  2   3   1  32   1
M  END
> <s_m_source_file>
C:\GitHub\mcce-charges\epik_inhibitors\output-new\Afatinib\Afatinib-input.mol2

> <i_m_source_file_index>
1

> <r_lp_tautomer_probability>
0.993507999998615

> <r_epik_Ionization_Penalty>
  4.2577

> <r_epik_Ionization_Penalty_Charging>
  4.2574

> <r_epik_Ionization_Penalty_Neutral>
  0.0003

> <r_epik_State_Penalty>
  4.0104

> <r_epik_Charging_Adjusted_Penalty>
8.26774513752502

> <i_epik_Tot_Q>
2

> <i_epik_Tot_abs_Q>
2

$$$$
