@<TRIPOS>MOLECULE
0WN
   61    64     1     0     0
SMALL
NO_CHARGES

@<TRIPOS>ATOM
      1  C1        53.1790   -1.6160  -21.7290 C.ar      1 0WN         0.0000
      2  N2        52.8410   -0.6260  -22.6090 N.ar      1 0WN         0.0000
      3  N3        52.7050   -1.5670  -20.4430 N.ar      1 0WN         0.0000
      4  C4        52.0300    0.4280  -22.2380 C.ar      1 0WN         0.0000
      5  C5        51.9030   -0.5230  -20.0530 C.ar      1 0WN         0.0000
      6  C6        51.5410    0.5000  -20.9270 C.ar      1 0WN         0.0000
      7  C7        50.2450    1.5230  -19.1350 C.ar      1 0WN         0.0000
      8  C8        50.7090    1.5350  -20.4530 C.ar      1 0WN         0.0000
      9  C9        50.6490    0.4930  -18.2850 C.ar      1 0WN         0.0000
     10  C10       51.4660   -0.5230  -18.7560 C.ar      1 0WN         0.0000
     11  N11       51.6260    1.3250  -23.2670 N.pl3     1 0WN         0.0000
     12  C12       51.7710   -0.5620  -26.5420 C.ar      1 0WN         0.0000
     13  C13       51.7250    0.5220  -27.4050 C.ar      1 0WN         0.0000
     14  C14       51.6990   -0.3420  -25.1660 C.ar      1 0WN         0.0000
     15  C15       51.6090    1.8130  -26.9140 C.ar      1 0WN         0.0000
     16  C16       51.5900    0.9650  -24.6560 C.ar      1 0WN         0.0000
     17  C17       51.5430    2.0300  -25.5510 C.ar      1 0WN         0.0000
     18  F18       51.7880    0.3220  -28.7120 F         1 0WN         0.0000
     19 CL1        51.9050   -2.1620  -27.2040 Cl        1 0WN         0.0000
     20  O20       50.2140    0.4870  -16.9920 O.3       1 0WN         0.0000
     21  C21       50.7250   -0.3450  -15.9420 C.3       1 0WN         0.0000
     22  C22       50.3270   -1.8270  -16.0470 C.3       1 0WN         0.0000
     23  O23       49.7230   -2.2430  -14.8260 O.3       1 0WN         0.0000
     24  C24       49.1970   -1.0530  -14.2520 C.3       1 0WN         0.0000
     25  C25       50.1460    0.0720  -14.6150 C.3       1 0WN         0.0000
     26  N26       49.4570    2.5630  -18.5470 N.am      1 0WN         0.0000
     27  C27       49.5680    3.9570  -18.7480 C.2       1 0WN         0.0000
     28  C28       48.6750    4.8840  -17.9680 C.3       1 0WN         0.0000
     29  O29       50.3610    4.4170  -19.5490 O.2       1 0WN         0.0000
     30  C30       49.0260    6.3970  -18.1540 C.3       1 0WN         0.0000
     31  C31       47.9020    7.4640  -18.1670 C.3       1 0WN         0.0000
     32  N32       47.9490    8.4150  -19.3120 N.3       1 0WN         0.0000
     33  C33       47.4780    7.8010  -20.5840 C.3       1 0WN         0.0000
     34  C34       47.1870    9.6590  -19.0290 C.3       1 0WN         0.0000
     35  H1        53.8140   -2.4300  -22.0440 H         1 0WN         0.0000
     36  H2        50.4280    2.3420  -21.1130 H         1 0WN         0.0000
     37  H3        51.7610   -1.3230  -18.0930 H         1 0WN         0.0000
     38  H4        51.3540    2.2520  -23.0090 H         1 0WN         0.0000
     39  H5        51.7270   -1.1810  -24.4870 H         1 0WN         0.0000
     40  H6        51.5700    2.6490  -27.5970 H         1 0WN         0.0000
     41  H7        51.4540    3.0390  -25.1750 H         1 0WN         0.0000
     42  H8        51.8220   -0.2740  -15.8980 H         1 0WN         0.0000
     43  H9        49.6120   -1.9570  -16.8730 H         1 0WN         0.0000
     44  H10       51.2230   -2.4350  -16.2390 H         1 0WN         0.0000
     45  H11       48.1960   -0.8480  -14.6580 H         1 0WN         0.0000
     46  H12       49.1350   -1.1570  -13.1590 H         1 0WN         0.0000
     47  H13       50.9380    0.1730  -13.8590 H         1 0WN         0.0000
     48  H14       49.6040    1.0250  -14.7080 H         1 0WN         0.0000
     49  H15       48.7400    2.2670  -17.9160 H         1 0WN         0.0000
     50  H16       47.6370    4.7250  -18.2960 H         1 0WN         0.0000
     51  H17       48.7640    4.6350  -16.9000 H         1 0WN         0.0000
     52  H18       49.5550    6.4830  -19.1150 H         1 0WN         0.0000
     53  H19       49.7080    6.6660  -17.3340 H         1 0WN         0.0000
     54  H20       47.9740    8.0470  -17.2370 H         1 0WN         0.0000
     55  H21       46.9350    6.9400  -18.1980 H         1 0WN         0.0000
     56  H23       48.0490    6.8820  -20.7820 H         1 0WN         0.0000
     57  H24       46.4090    7.5570  -20.4990 H         1 0WN         0.0000
     58  H25       47.6280    8.5110  -21.4110 H         1 0WN         0.0000
     59  H26       47.5440   10.1020  -18.0880 H         1 0WN         0.0000
     60  H27       47.3360   10.3750  -19.8510 H         1 0WN         0.0000
     61  H28       46.1170    9.4210  -18.9390 H         1 0WN         0.0000
@<TRIPOS>BOND
     1    1    3 ar
     2    1   35 1
     3    2    4 ar
     4    1    2 ar
     5    3    5 ar
     6    4    6 ar
     7    5   10 ar
     8    6    8 ar
     9    5    6 ar
    10    7   26 1
    11    7    9 ar
    12    7    8 ar
    13    8   36 1
    14    9   20 1
    15    9   10 ar
    16   10   37 1
    17    4   11 1
    18   11   38 1
    19   12   14 ar
    20   13   15 ar
    21   12   13 ar
    22   14   16 ar
    23   14   39 1
    24   15   17 ar
    25   15   40 1
    26   11   16 1
    27   16   17 ar
    28   17   41 1
    29   13   18 1
    30   12   19 1
    31   20   21 1
    32   21   25 1
    33   21   42 1
    34   21   22 1
    35   22   23 1
    36   22   43 1
    37   22   44 1
    38   23   24 1
    39   24   45 1
    40   24   46 1
    41   24   25 1
    42   25   47 1
    43   25   48 1
    44   26   49 1
    45   26   27 am
    46   27   28 1
    47   28   50 1
    48   28   51 1
    49   27   29 2
    50   28   30 1
    51   30   52 1
    52   30   53 1
    53   30   31 1
    54   31   54 1
    55   31   55 1
    56   32   34 1
    57   31   32 1
    58   32   33 1
    59   33   56 1
    60   33   57 1
    61   33   58 1
    62   34   59 1
    63   34   60 1
    64   34   61 1
@<TRIPOS>SUBSTRUCTURE
     1 0WN         1 GROUP 0 A     ****
