0WN
  CCTOOLS-0721180819

 61 64  0  0  1  0  0  0  0  0999 V2000
   53.1790   -1.6160  -21.7290 C   0  0  0  0  0
   52.8410   -0.6260  -22.6090 N   0  0  0  0  0
   52.7050   -1.5670  -20.4430 N   0  0  0  0  0
   52.0300    0.4280  -22.2380 C   0  0  0  0  0
   51.9030   -0.5230  -20.0530 C   0  0  0  0  0
   51.5410    0.5000  -20.9270 C   0  0  0  0  0
   50.2450    1.5230  -19.1350 C   0  0  0  0  0
   50.7090    1.5350  -20.4530 C   0  0  0  0  0
   50.6490    0.4930  -18.2850 C   0  0  0  0  0
   51.4660   -0.5230  -18.7560 C   0  0  0  0  0
   51.6260    1.3250  -23.2670 N   0  0  0  0  0
   51.7710   -0.5620  -26.5420 C   0  0  0  0  0
   51.7250    0.5220  -27.4050 C   0  0  0  0  0
   51.6990   -0.3420  -25.1660 C   0  0  0  0  0
   51.6090    1.8130  -26.9140 C   0  0  0  0  0
   51.5900    0.9650  -24.6560 C   0  0  0  0  0
   51.5430    2.0300  -25.5510 C   0  0  0  0  0
   51.7880    0.3220  -28.7120 F   0  0  0  0  0
   51.9050   -2.1620  -27.2040 CL  0  0  0  0  0
   50.2140    0.4870  -16.9920 O   0  0  0  0  0
   50.7250   -0.3450  -15.9420 C   0  0  0  0  0
   50.3270   -1.8270  -16.0470 C   0  0  0  0  0
   49.7230   -2.2430  -14.8260 O   0  0  0  0  0
   49.1970   -1.0530  -14.2520 C   0  0  0  0  0
   50.1460    0.0720  -14.6150 C   0  0  0  0  0
   49.4570    2.5630  -18.5470 N   0  0  0  0  0
   49.5680    3.9570  -18.7480 C   0  0  0  0  0
   48.6750    4.8840  -17.9680 C   0  0  0  0  0
   50.3610    4.4170  -19.5490 O   0  0  0  0  0
   49.0260    6.3970  -18.1540 C   0  0  0  0  0
   47.9020    7.4640  -18.1670 C   0  0  0  0  0
   47.9490    8.4150  -19.3120 N   0  0  0  0  0
   47.4780    7.8010  -20.5840 C   0  0  0  0  0
   47.1870    9.6590  -19.0290 C   0  0  0  0  0
   53.8140   -2.4300  -22.0440 H   0  0  0  0  0
   50.4280    2.3420  -21.1130 H   0  0  0  0  0
   51.7610   -1.3230  -18.0930 H   0  0  0  0  0
   51.3540    2.2520  -23.0090 H   0  0  0  0  0
   51.7270   -1.1810  -24.4870 H   0  0  0  0  0
   51.5700    2.6490  -27.5970 H   0  0  0  0  0
   51.4540    3.0390  -25.1750 H   0  0  0  0  0
   51.8220   -0.2740  -15.8980 H   0  0  0  0  0
   49.6120   -1.9570  -16.8730 H   0  0  0  0  0
   51.2230   -2.4350  -16.2390 H   0  0  0  0  0
   48.1960   -0.8480  -14.6580 H   0  0  0  0  0
   49.1350   -1.1570  -13.1590 H   0  0  0  0  0
   50.9380    0.1730  -13.8590 H   0  0  0  0  0
   49.6040    1.0250  -14.7080 H   0  0  0  0  0
   48.7400    2.2670  -17.9160 H   0  0  0  0  0
   47.6370    4.7250  -18.2960 H   0  0  0  0  0
   48.7640    4.6350  -16.9000 H   0  0  0  0  0
   49.5550    6.4830  -19.1150 H   0  0  0  0  0
   49.7080    6.6660  -17.3340 H   0  0  0  0  0
   47.9740    8.0470  -17.2370 H   0  0  0  0  0
   46.9350    6.9400  -18.1980 H   0  0  0  0  0
   48.0490    6.8820  -20.7820 H   0  0  0  0  0
   46.4090    7.5570  -20.4990 H   0  0  0  0  0
   47.6280    8.5110  -21.4110 H   0  0  0  0  0
   47.5440   10.1020  -18.0880 H   0  0  0  0  0
   47.3360   10.3750  -19.8510 H   0  0  0  0  0
   46.1170    9.4210  -18.9390 H   0  0  0  0  0
  1  3  2  0  0  0
  1 35  1  0  0  0
  2  4  2  0  0  0
  2  1  1  0  0  0
  3  5  1  0  0  0
  4  6  1  0  0  0
  5 10  2  0  0  0
  6  8  2  0  0  0
  6  5  1  0  0  0
  7 26  1  0  0  0
  7  9  2  0  0  0
  8  7  1  0  0  0
  8 36  1  0  0  0
  9 20  1  0  0  0
 10  9  1  0  0  0
 10 37  1  0  0  0
 11  4  1  0  0  0
 11 38  1  0  0  0
 12 14  2  0  0  0
 13 15  2  0  0  0
 13 12  1  0  0  0
 14 16  1  0  0  0
 14 39  1  0  0  0
 15 17  1  0  0  0
 15 40  1  0  0  0
 16 11  1  0  0  0
 17 16  2  0  0  0
 17 41  1  0  0  0
 18 13  1  0  0  0
 19 12  1  0  0  0
 20 21  1  0  0  0
 21 25  1  0  0  0
 21 42  1  0  0  0
 22 21  1  0  0  0
 22 23  1  0  0  0
 22 43  1  0  0  0
 22 44  1  0  0  0
 23 24  1  0  0  0
 24 45  1  0  0  0
 24 46  1  0  0  0
 25 24  1  0  0  0
 25 47  1  0  0  0
 25 48  1  0  0  0
 26 49  1  0  0  0
 27 26  1  0  0  0
 27 28  1  0  0  0
 28 50  1  0  0  0
 28 51  1  0  0  0
 29 27  2  0  0  0
 30 28  1  0  0  0
 30 52  1  0  0  0
 30 53  1  0  0  0
 31 30  1  0  0  0
 31 54  1  0  0  0
 31 55  1  0  0  0
 32 34  1  0  0  0
 32 31  1  0  0  0
 33 32  1  0  0  0
 33 56  1  0  0  0
 33 57  1  0  0  0
 33 58  1  0  0  0
 34 59  1  0  0  0
 34 60  1  0  0  0
 34 61  1  0  0  0
M  END
$$$$
