4MK
  CCTOOLS-0424161057

 74 77  0  0  0  0  0  0  0  0999 V2000
  -27.8260    8.7850   -7.1560 C   0  0  0  0  0
  -26.6010    7.8280   -7.1320 C   0  0  0  0  0
  -26.8650    6.5500   -7.9830 C   0  0  0  0  0
  -25.4870    8.5920   -7.6500 O   0  0  0  0  0
  -24.1230    8.2730   -7.5080 C   0  0  0  0  0
  -23.6270    7.2280   -6.7040 C   0  0  0  0  0
  -22.2450    6.9710   -6.5660 C   0  0  0  0  0
  -21.7800    5.7880   -5.6670 C   0  0  0  0  0
  -22.5470    5.6270   -4.3120 C   0  0  0  0  0
  -21.9580    4.4250   -3.5020 C   0  0  0  0  0
  -21.9330    3.1980   -4.3490 N   0  0  0  0  0
  -21.1750    3.2740   -5.6310 C   0  0  0  0  0
  -21.7210    4.4570   -6.4900 C   0  0  0  0  0
  -21.3350    7.7610   -7.3130 C   0  0  0  0  0
  -19.8020    7.5940   -7.2480 C   0  0  0  0  0
  -21.8430    8.7800   -8.1450 C   0  0  0  0  0
  -23.2250    9.0640   -8.2320 C   0  0  0  0  0
  -23.7730   10.0520   -9.0150 N   0  0  0  0  0
  -23.1950   11.2120   -9.4020 C   0  0  0  0  0
  -23.7330   12.0060  -10.3610 N   0  0  0  0  0
  -23.0750   13.1070  -10.7830 C   0  0  0  0  0
  -21.8610   13.4650  -10.1760 C   0  0  0  0  0
  -21.0310   14.9090  -10.6640 CL  0  0  0  0  0
  -21.3470   12.6810   -9.1410 C   0  0  0  0  0
  -20.1650   12.9820   -8.5220 N   0  0  0  0  0
  -19.5070   12.2680   -7.5370 C   0  0  0  0  0
  -20.2020   11.4350   -6.6220 C   0  0  0  0  0
  -19.5380   10.7450   -5.5920 C   0  0  0  0  0
  -18.1570   10.8990   -5.4210 C   0  0  0  0  0
  -17.4580   11.7640   -6.2750 C   0  0  0  0  0
  -18.1010   12.4280   -7.3470 C   0  0  0  0  0
  -17.1110   13.5470   -8.3390 S   0  0  0  0  0
  -17.9420   14.5970   -8.9150 O   0  0  0  0  0
  -16.0350   14.0540   -7.4940 O   0  0  0  0  0
  -16.4330   12.5510   -9.6970 C   0  0  0  0  0
  -15.3000   11.6340   -9.1600 C   0  0  0  0  0
  -17.5050   11.7990  -10.5280 C   0  0  0  0  0
  -22.0520   11.5870   -8.8150 N   0  0  0  0  0
  -27.6080    9.6750   -6.5480 H   0  0  0  0  0
  -28.0320    9.0910   -8.1920 H   0  0  0  0  0
  -28.7050    8.2660   -6.7450 H   0  0  0  0  0
  -26.4060    7.5270   -6.0920 H   0  0  0  0  0
  -25.9820    5.8950   -7.9460 H   0  0  0  0  0
  -27.7360    6.0140   -7.5790 H   0  0  0  0  0
  -27.0640    6.8390   -9.0260 H   0  0  0  0  0
  -24.3290    6.6010   -6.1740 H   0  0  0  0  0
  -20.7390    6.0130   -5.3930 H   0  0  0  0  0
  -22.4420    6.5500   -3.7220 H   0  0  0  0  0
  -23.6120    5.4410   -4.5160 H   0  0  0  0  0
  -20.9330    4.6680   -3.1840 H   0  0  0  0  0
  -22.5840    4.2420   -2.6160 H   0  0  0  0  0
  -21.5300    2.4630   -3.8030 H   0  0  0  0  0
  -20.1090    3.4380   -5.4170 H   0  0  0  0  0
  -21.2970    2.3320   -6.1850 H   0  0  0  0  0
  -22.7340    4.2070   -6.8380 H   0  0  0  0  0
  -21.0610    4.6030   -7.3580 H   0  0  0  0  0
  -19.4780    6.8790   -8.0180 H   0  0  0  0  0
  -19.3200    8.5670   -7.4240 H   0  0  0  0  0
  -19.5160    7.2180   -6.2550 H   0  0  0  0  0
  -21.1530    9.3630   -8.7360 H   0  0  0  0  0
  -24.7070    9.8950   -9.3360 H   0  0  0  0  0
  -23.4800   13.7090  -11.5830 H   0  0  0  0  0
  -19.7200   13.8260   -8.8200 H   0  0  0  0  0
  -21.2720   11.3280   -6.7200 H   0  0  0  0  0
  -20.0940   10.0960   -4.9320 H   0  0  0  0  0
  -17.6380   10.3590   -4.6430 H   0  0  0  0  0
  -16.4030   11.9280   -6.1110 H   0  0  0  0  0
  -15.9620   13.2850  -10.3680 H   0  0  0  0  0
  -14.8920   11.0320   -9.9860 H   0  0  0  0  0
  -14.5000   12.2540   -8.7280 H   0  0  0  0  0
  -15.7050   10.9660   -8.3850 H   0  0  0  0  0
  -17.0140   11.2230  -11.3260 H   0  0  0  0  0
  -18.0630   11.1150   -9.8720 H   0  0  0  0  0
  -18.1990   12.5260  -10.9750 H   0  0  0  0  0
  1  2  1  0  0  0
  1 39  1  0  0  0
  1 40  1  0  0  0
  1 41  1  0  0  0
  2  3  1  0  0  0
  2  4  1  0  0  0
  2 42  1  0  0  0
  3 43  1  0  0  0
  3 44  1  0  0  0
  3 45  1  0  0  0
  4  5  1  0  0  0
  5  6  2  0  0  0
  5 17  1  0  0  0
  6  7  1  0  0  0
  6 46  1  0  0  0
  7  8  1  0  0  0
  7 14  2  0  0  0
  8  9  1  0  0  0
  8 13  1  0  0  0
  8 47  1  0  0  0
  9 10  1  0  0  0
  9 48  1  0  0  0
  9 49  1  0  0  0
 10 11  1  0  0  0
 10 50  1  0  0  0
 10 51  1  0  0  0
 11 12  1  0  0  0
 11 52  1  0  0  0
 12 13  1  0  0  0
 12 53  1  0  0  0
 12 54  1  0  0  0
 13 55  1  0  0  0
 13 56  1  0  0  0
 14 15  1  0  0  0
 14 16  1  0  0  0
 15 57  1  0  0  0
 15 58  1  0  0  0
 15 59  1  0  0  0
 16 17  2  0  0  0
 16 60  1  0  0  0
 17 18  1  0  0  0
 18 19  1  0  0  0
 18 61  1  0  0  0
 19 20  2  0  0  0
 19 38  1  0  0  0
 20 21  1  0  0  0
 21 22  2  0  0  0
 21 62  1  0  0  0
 22 23  1  0  0  0
 22 24  1  0  0  0
 24 25  1  0  0  0
 24 38  2  0  0  0
 25 26  1  0  0  0
 25 63  1  0  0  0
 26 27  2  0  0  0
 26 31  1  0  0  0
 27 28  1  0  0  0
 27 64  1  0  0  0
 28 29  2  0  0  0
 28 65  1  0  0  0
 29 30  1  0  0  0
 29 66  1  0  0  0
 30 31  2  0  0  0
 30 67  1  0  0  0
 31 32  1  0  0  0
 32 33  2  0  0  0
 32 34  2  0  0  0
 32 35  1  0  0  0
 35 36  1  0  0  0
 35 37  1  0  0  0
 35 68  1  0  0  0
 36 69  1  0  0  0
 36 70  1  0  0  0
 36 71  1  0  0  0
 37 72  1  0  0  0
 37 73  1  0  0  0
 37 74  1  0  0  0
M  END
$$$$
