@<TRIPOS>MOLECULE
4-(2,4-dichloro-5-methoxy-anilino)-6-methoxy-7-[3-(4-methylpiperazin-4-ium-1-yl)propoxy]quinoline-3-carbonitrile
   66    69     1     0     0
SMALL
USER_CHARGES

@<TRIPOS>ATOM
      1 CAA       -46.2890  -11.8980   31.9630 C.3       1 DB8         0.1174
      2 O02       -40.7340   -3.3480   34.4650 O.3       1 DB8        -0.3329
      3 CAC       -45.9370  -16.7140   33.9290 C.3       1 DB8         0.1707
      4 NAD       -42.0470   -5.6070   36.9580 N.1       1 DB8        -0.3265
      5 CL1       -41.6410   -2.5430   31.7040 Cl        1 DB8        -0.0550
      6 CL2       -43.8530   -7.4090   31.5070 Cl        1 DB8        -0.0820
      7 CAG       -42.6040   -6.4970   36.8710 C.1       1 DB8         0.2268
      8 CAH       -44.1270   -8.3740   37.7730 C.ar      1 DB8         0.4681
      9 CAI       -42.6710   -5.0430   31.8540 C.ar      1 DB8        -0.0816
     10 CAJ       -41.7470   -5.6360   34.3880 C.ar      1 DB8        -0.1710
     11 CAK       -45.8070  -11.4630   36.5110 C.ar      1 DB8        -0.2041
     12 CAL       -44.4960  -10.5590   34.1910 C.ar      1 DB8        -0.1040
     13 CAM       -46.3970  -15.2540   33.9000 C.3       1 DB8        -0.0891
     14 CAN       -46.3040  -14.6450   35.2980 C.3       1 DB8         0.1274
     15 CAO       -49.7410  -20.4620   32.0550 C.3       1 DB8         0.0843
     16 CAP       -46.9010  -18.9560   34.0040 C.3       1 DB8         0.1412
     17 CAQ       -47.5400  -17.3980   32.3130 C.3       1 DB8         0.1412
     18 CAR       -48.0990  -19.8290   33.6830 C.3       1 DB8         0.1075
     19 CAS       -48.7550  -18.2620   32.0640 C.3       1 DB8         0.1075
     20 NAT       -44.8800   -9.5430   37.6960 N.ar      1 DB8        -0.6706
     21 NAU       -42.7700   -7.9670   34.2760 N.pl3     1 DB8        -0.6897
     22 OAV       -45.3390  -12.3390   32.8620 O.3       1 DB8        -0.3235
     23 OAW       -46.8510  -13.3800   35.2230 O.3       1 DB8        -0.3237
     24 CAX       -41.4640   -4.3120   33.7870 C.ar      1 DB8         0.1330
     25 CAY       -41.9390   -4.0440   32.5110 C.ar      1 DB8        -0.0132
     26 CAZ       -42.9410   -6.2980   32.4360 C.ar      1 DB8        -0.0281
     27 CBA       -43.4290   -7.8160   36.7070 C.ar      1 DB8        -0.1577
     28 CBB       -42.4850   -6.6150   33.7650 C.ar      1 DB8         0.1823
     29 CBC       -45.2610  -11.7280   34.1420 C.ar      1 DB8         0.0824
     30 CBD       -45.9310  -12.2080   35.3090 C.ar      1 DB8         0.1014
     31 CBE       -43.5260   -8.4920   35.4760 C.ar      1 DB8         0.2569
     32 CBF       -44.9960  -10.2460   36.5210 C.ar      1 DB8         0.4270
     33 CBG       -44.3210   -9.7500   35.3900 C.ar      1 DB8        -0.1737
     34 NBH       -47.1180  -17.5460   33.6690 N.3       1 DB8        -0.7349
     35 NBI       -48.5470  -19.6570   32.3240 N.4       1 DB8        -0.6856
     36 C01       -39.4020   -2.8960   34.0930 C.3       1 DB8         0.1162
     37 HAA       -46.2083  -12.4766   31.0309 H         1 DB8         0.0412
     38 HAAA      -46.1236  -10.8319   31.7483 H         1 DB8         0.0412
     39 HAAB      -47.2921  -12.0341   32.3934 H         1 DB8         0.0412
     40 HAC       -45.1731  -16.8732   33.1537 H         1 DB8         0.0507
     41 HACA      -45.5108  -16.9446   34.9165 H         1 DB8         0.0507
     42 HAH       -44.0820   -7.8660   38.7250 H         1 DB8         0.0446
     43 HAI       -43.0440   -4.8430   30.8600 H         1 DB8         0.1694
     44 HAJ       -41.3510   -5.8440   35.3710 H         1 DB8         0.1599
     45 HAK       -46.3070  -11.7920   37.4100 H         1 DB8         0.1596
     46 HAL       -44.0050  -10.2360   33.2850 H         1 DB8         0.1592
     47 HAM       -45.7559  -14.6811   33.2139 H         1 DB8         0.0707
     48 HAMA      -47.4400  -15.2050   33.5541 H         1 DB8         0.0707
     49 HAN       -46.8650  -15.2701   36.0083 H         1 DB8         0.0415
     50 HANA      -45.2494  -14.5953   35.6069 H         1 DB8         0.0415
     51 HAO       -49.5265  -21.5192   32.2702 H         1 DB8         0.1060
     52 HAOA      -50.0260  -20.3534   30.9981 H         1 DB8         0.1060
     53 HAOB      -50.5670  -20.1178   32.6947 H         1 DB8         0.1060
     54 HAP       -46.6821  -19.0151   35.0804 H         1 DB8         0.0773
     55 HAPA      -46.0286  -19.3060   33.4327 H         1 DB8         0.0773
     56 HAQ       -47.7942  -16.3451   32.1209 H         1 DB8         0.0773
     57 HAQA      -46.7268  -17.7075   31.6400 H         1 DB8         0.0773
     58 HAR       -47.8304  -20.8864   33.8237 H         1 DB8         0.1115
     59 HARA      -48.9317  -19.5699   34.3534 H         1 DB8         0.1115
     60 HAS       -49.5790  -17.9318   32.7136 H         1 DB8         0.1115
     61 HASA      -49.0596  -18.1717   31.0109 H         1 DB8         0.1115
     62 HNAU      -42.2952   -8.6691   33.5748 H         1 DB8         0.4566
     63 H01       -39.0639   -2.1274   34.8036 H         1 DB8         0.0460
     64 H01A      -39.4289   -2.4712   33.0787 H         1 DB8         0.0460
     65 H01B      -38.7062   -3.7477   34.1155 H         1 DB8         0.0460
     66 H66       -47.7591  -20.0022   31.6385 H         1 DB8         0.4456
@<TRIPOS>BOND
     1    1   22 1
     2    1   37 1
     3    1   38 1
     4    1   39 1
     5    2   24 1
     6    2   36 1
     7    3   40 1
     8    3   41 1
     9    3   13 1
    10    3   34 1
    11    4    7 3
    12    5   25 1
    13    6   26 1
    14    7   27 1
    15    8   42 1
    16    8   20 ar
    17    8   27 ar
    18    9   26 ar
    19    9   25 ar
    20    9   43 1
    21   10   44 1
    22   10   24 ar
    23   10   28 ar
    24   11   32 ar
    25   11   45 1
    26   11   30 ar
    27   12   33 ar
    28   12   46 1
    29   12   29 ar
    30   13   14 1
    31   13   47 1
    32   13   48 1
    33   14   49 1
    34   14   50 1
    35   14   23 1
    36   15   35 1
    37   15   51 1
    38   15   52 1
    39   15   53 1
    40   16   54 1
    41   16   55 1
    42   16   18 1
    43   16   34 1
    44   17   34 1
    45   17   56 1
    46   17   57 1
    47   17   19 1
    48   18   58 1
    49   18   59 1
    50   18   35 1
    51   19   35 1
    52   19   60 1
    53   19   61 1
    54   20   32 ar
    55   21   31 1
    56   21   62 1
    57   21   28 1
    58   22   29 1
    59   23   30 1
    60   24   25 ar
    61   26   28 ar
    62   27   31 ar
    63   29   30 ar
    64   31   33 ar
    65   32   33 ar
    66   35   66 1
    67   36   63 1
    68   36   64 1
    69   36   65 1
@<TRIPOS>SUBSTRUCTURE
     1 DB8         1 GROUP   0 A     ****
@<TRIPOS>MOLECULE
4-(2,4-dichloro-5-methoxy-anilino)-6-methoxy-7-[3-(4-methylpiperazin-1-ium-1-yl)propoxy]quinoline-3-carbonitrile
   66    69     1     0     0
SMALL
USER_CHARGES

@<TRIPOS>ATOM
      1 CAA       -46.2890  -11.8980   31.9630 C.3       1 DB8         0.1161
      2 O02       -40.7340   -3.3480   34.4650 O.3       1 DB8        -0.3292
      3 CAC       -45.9370  -16.7140   33.9290 C.3       1 DB8         0.1112
      4 NAD       -42.0470   -5.6070   36.9580 N.1       1 DB8        -0.3396
      5 CL1       -41.6410   -2.5430   31.7040 Cl        1 DB8        -0.0464
      6 CL2       -43.8530   -7.4090   31.5070 Cl        1 DB8        -0.0690
      7 CAG       -42.6040   -6.4970   36.8710 C.1       1 DB8         0.2317
      8 CAH       -44.1270   -8.3740   37.7730 C.ar      1 DB8         0.4924
      9 CAI       -42.6710   -5.0430   31.8540 C.ar      1 DB8        -0.0957
     10 CAJ       -41.7470   -5.6360   34.3880 C.ar      1 DB8        -0.1318
     11 CAK       -45.8070  -11.4630   36.5110 C.ar      1 DB8        -0.2594
     12 CAL       -44.4960  -10.5590   34.1910 C.ar      1 DB8        -0.0840
     13 CAM       -46.3970  -15.2540   33.9000 C.3       1 DB8        -0.1203
     14 CAN       -46.3040  -14.6450   35.2980 C.3       1 DB8         0.1265
     15 CAO       -49.7410  -20.4620   32.0550 C.3       1 DB8         0.1535
     16 CAP       -46.9010  -18.9560   34.0040 C.3       1 DB8         0.1077
     17 CAQ       -47.5400  -17.3980   32.3130 C.3       1 DB8         0.1077
     18 CAR       -48.0990  -19.8290   33.6830 C.3       1 DB8         0.1445
     19 CAS       -48.7550  -18.2620   32.0640 C.3       1 DB8         0.1445
     20 NAT       -44.8800   -9.5430   37.6960 N.ar      1 DB8        -0.6980
     21 NAU       -42.7700   -7.9670   34.2760 N.pl3     1 DB8        -0.6639
     22 OAV       -45.3390  -12.3390   32.8620 O.3       1 DB8        -0.3285
     23 OAW       -46.8510  -13.3800   35.2230 O.3       1 DB8        -0.3106
     24 CAX       -41.4640   -4.3120   33.7870 C.ar      1 DB8         0.1132
     25 CAY       -41.9390   -4.0440   32.5110 C.ar      1 DB8         0.0148
     26 CAZ       -42.9410   -6.2980   32.4360 C.ar      1 DB8         0.0026
     27 CBA       -43.4290   -7.8160   36.7070 C.ar      1 DB8        -0.2125
     28 CBB       -42.4850   -6.6150   33.7650 C.ar      1 DB8         0.1326
     29 CBC       -45.2610  -11.7280   34.1420 C.ar      1 DB8         0.0717
     30 CBD       -45.9310  -12.2080   35.3090 C.ar      1 DB8         0.1234
     31 CBE       -43.5260   -8.4920   35.4760 C.ar      1 DB8         0.2872
     32 CBF       -44.9960  -10.2460   36.5210 C.ar      1 DB8         0.4570
     33 CBG       -44.3210   -9.7500   35.3900 C.ar      1 DB8        -0.1989
     34 NBH       -47.1180  -17.5460   33.6690 N.4       1 DB8        -0.6864
     35 NBI       -48.5470  -19.6570   32.3240 N.3       1 DB8        -0.7445
     36 C01       -39.4020   -2.8960   34.0930 C.3       1 DB8         0.1146
     37 HAA       -46.2083  -12.4766   31.0309 H         1 DB8         0.0439
     38 HAAA      -46.1236  -10.8319   31.7483 H         1 DB8         0.0439
     39 HAAB      -47.2921  -12.0341   32.3934 H         1 DB8         0.0439
     40 HAC       -45.1731  -16.8732   33.1537 H         1 DB8         0.1047
     41 HACA      -45.5108  -16.9446   34.9165 H         1 DB8         0.1047
     42 HAH       -44.0820   -7.8660   38.7250 H         1 DB8         0.0429
     43 HAI       -43.0440   -4.8430   30.8600 H         1 DB8         0.1732
     44 HAJ       -41.3510   -5.8440   35.3710 H         1 DB8         0.1607
     45 HAK       -46.3070  -11.7920   37.4100 H         1 DB8         0.1540
     46 HAL       -44.0050  -10.2360   33.2850 H         1 DB8         0.1544
     47 HAM       -45.7559  -14.6811   33.2139 H         1 DB8         0.0829
     48 HAMA      -47.4400  -15.2050   33.5541 H         1 DB8         0.0829
     49 HAN       -46.8650  -15.2701   36.0083 H         1 DB8         0.0578
     50 HANA      -45.2494  -14.5953   35.6069 H         1 DB8         0.0578
     51 HAO       -49.5265  -21.5192   32.2702 H         1 DB8         0.0580
     52 HAOA      -50.0260  -20.3534   30.9981 H         1 DB8         0.0580
     53 HAOB      -50.5670  -20.1178   32.6947 H         1 DB8         0.0580
     54 HAP       -46.6821  -19.0151   35.0804 H         1 DB8         0.1103
     55 HAPA      -46.0286  -19.3060   33.4327 H         1 DB8         0.1103
     56 HAQ       -47.7942  -16.3451   32.1209 H         1 DB8         0.1103
     57 HAQA      -46.7268  -17.7075   31.6400 H         1 DB8         0.1103
     58 HAR       -47.8304  -20.8864   33.8237 H         1 DB8         0.0758
     59 HARA      -48.9317  -19.5699   34.3534 H         1 DB8         0.0758
     60 HAS       -49.5790  -17.9318   32.7136 H         1 DB8         0.0758
     61 HASA      -49.0596  -18.1717   31.0109 H         1 DB8         0.0758
     62 HNAU      -42.2952   -8.6691   33.5748 H         1 DB8         0.4565
     63 H01       -39.0639   -2.1274   34.8036 H         1 DB8         0.0466
     64 H01A      -39.4289   -2.4712   33.0787 H         1 DB8         0.0466
     65 H01B      -38.7062   -3.7477   34.1155 H         1 DB8         0.0466
     66 H66       -47.9374  -17.1850   34.3079 H         1 DB8         0.4439
@<TRIPOS>BOND
     1    1   22 1
     2    1   37 1
     3    1   38 1
     4    1   39 1
     5    2   24 1
     6    2   36 1
     7    3   40 1
     8    3   41 1
     9    3   13 1
    10    3   34 1
    11    4    7 3
    12    5   25 1
    13    6   26 1
    14    7   27 1
    15    8   42 1
    16    8   20 ar
    17    8   27 ar
    18    9   26 ar
    19    9   25 ar
    20    9   43 1
    21   10   44 1
    22   10   24 ar
    23   10   28 ar
    24   11   32 ar
    25   11   45 1
    26   11   30 ar
    27   12   33 ar
    28   12   46 1
    29   12   29 ar
    30   13   14 1
    31   13   47 1
    32   13   48 1
    33   14   49 1
    34   14   50 1
    35   14   23 1
    36   15   35 1
    37   15   51 1
    38   15   52 1
    39   15   53 1
    40   16   54 1
    41   16   55 1
    42   16   18 1
    43   16   34 1
    44   17   34 1
    45   17   56 1
    46   17   57 1
    47   17   19 1
    48   18   58 1
    49   18   59 1
    50   18   35 1
    51   19   35 1
    52   19   60 1
    53   19   61 1
    54   20   32 ar
    55   21   31 1
    56   21   62 1
    57   21   28 1
    58   22   29 1
    59   23   30 1
    60   24   25 ar
    61   26   28 ar
    62   27   31 ar
    63   29   30 ar
    64   31   33 ar
    65   32   33 ar
    66   34   66 1
    67   36   63 1
    68   36   64 1
    69   36   65 1
@<TRIPOS>SUBSTRUCTURE
     1 DB8         1 GROUP   0 A     ****
@<TRIPOS>MOLECULE
4-(2,4-dichloro-5-methoxy-anilino)-6-methoxy-7-[3-(4-methylpiperazin-1-yl)propoxy]quinoline-3-carbonitrile
   65    68     1     0     0
SMALL
USER_CHARGES

@<TRIPOS>ATOM
      1 CAA       -46.2890  -11.8980   31.9630 C.3       1 DB8         0.1173
      2 O02       -40.7340   -3.3480   34.4650 O.3       1 DB8        -0.3383
      3 CAC       -45.9370  -16.7140   33.9290 C.3       1 DB8         0.1787
      4 NAD       -42.0470   -5.6070   36.9580 N.1       1 DB8        -0.3618
      5 CL1       -41.6410   -2.5430   31.7040 Cl        1 DB8        -0.0630
      6 CL2       -43.8530   -7.4090   31.5070 Cl        1 DB8        -0.0717
      7 CAG       -42.6040   -6.4970   36.8710 C.1       1 DB8         0.2470
      8 CAH       -44.1270   -8.3740   37.7730 C.ar      1 DB8         0.4627
      9 CAI       -42.6710   -5.0430   31.8540 C.ar      1 DB8        -0.0886
     10 CAJ       -41.7470   -5.6360   34.3880 C.ar      1 DB8        -0.1667
     11 CAK       -45.8070  -11.4630   36.5110 C.ar      1 DB8        -0.2143
     12 CAL       -44.4960  -10.5590   34.1910 C.ar      1 DB8        -0.1161
     13 CAM       -46.3970  -15.2540   33.9000 C.3       1 DB8        -0.0878
     14 CAN       -46.3040  -14.6450   35.2980 C.3       1 DB8         0.1303
     15 CAO       -49.7410  -20.4620   32.0550 C.3       1 DB8         0.1600
     16 CAP       -46.9010  -18.9560   34.0040 C.3       1 DB8         0.1708
     17 CAQ       -47.5400  -17.3980   32.3130 C.3       1 DB8         0.1708
     18 CAR       -48.0990  -19.8290   33.6830 C.3       1 DB8         0.1699
     19 CAS       -48.7550  -18.2620   32.0640 C.3       1 DB8         0.1699
     20 NAT       -44.8800   -9.5430   37.6960 N.ar      1 DB8        -0.6661
     21 NAU       -42.7700   -7.9670   34.2760 N.pl3     1 DB8        -0.6812
     22 OAV       -45.3390  -12.3390   32.8620 O.3       1 DB8        -0.3347
     23 OAW       -46.8510  -13.3800   35.2230 O.3       1 DB8        -0.3313
     24 CAX       -41.4640   -4.3120   33.7870 C.ar      1 DB8         0.1291
     25 CAY       -41.9390   -4.0440   32.5110 C.ar      1 DB8        -0.0115
     26 CAZ       -42.9410   -6.2980   32.4360 C.ar      1 DB8        -0.0255
     27 CBA       -43.4290   -7.8160   36.7070 C.ar      1 DB8        -0.1725
     28 CBB       -42.4850   -6.6150   33.7650 C.ar      1 DB8         0.1806
     29 CBC       -45.2610  -11.7280   34.1420 C.ar      1 DB8         0.0889
     30 CBD       -45.9310  -12.2080   35.3090 C.ar      1 DB8         0.1215
     31 CBE       -43.5260   -8.4920   35.4760 C.ar      1 DB8         0.2628
     32 CBF       -44.9960  -10.2460   36.5210 C.ar      1 DB8         0.4329
     33 CBG       -44.3210   -9.7500   35.3900 C.ar      1 DB8        -0.1806
     34 NBH       -47.1180  -17.5460   33.6690 N.3       1 DB8        -0.7362
     35 NBI       -48.5470  -19.6570   32.3240 N.3       1 DB8        -0.7364
     36 C01       -39.4020   -2.8960   34.0930 C.3       1 DB8         0.1164
     37 HAA       -46.2083  -12.4766   31.0309 H         1 DB8         0.0457
     38 HAAA      -46.1236  -10.8319   31.7483 H         1 DB8         0.0457
     39 HAAB      -47.2921  -12.0341   32.3934 H         1 DB8         0.0457
     40 HAC       -45.1731  -16.8732   33.1537 H         1 DB8         0.0324
     41 HACA      -45.5108  -16.9446   34.9165 H         1 DB8         0.0324
     42 HAH       -44.0820   -7.8660   38.7250 H         1 DB8         0.0367
     43 HAI       -43.0440   -4.8430   30.8600 H         1 DB8         0.1659
     44 HAJ       -41.3510   -5.8440   35.3710 H         1 DB8         0.1600
     45 HAK       -46.3070  -11.7920   37.4100 H         1 DB8         0.1656
     46 HAL       -44.0050  -10.2360   33.2850 H         1 DB8         0.1490
     47 HAM       -45.7559  -14.6811   33.2139 H         1 DB8         0.0657
     48 HAMA      -47.4400  -15.2050   33.5541 H         1 DB8         0.0657
     49 HAN       -46.8650  -15.2701   36.0083 H         1 DB8         0.0406
     50 HANA      -45.2494  -14.5953   35.6069 H         1 DB8         0.0406
     51 HAO       -49.5265  -21.5192   32.2702 H         1 DB8         0.0319
     52 HAOA      -50.0260  -20.3534   30.9981 H         1 DB8         0.0319
     53 HAOB      -50.5670  -20.1178   32.6947 H         1 DB8         0.0319
     54 HAP       -46.6821  -19.0151   35.0804 H         1 DB8         0.0370
     55 HAPA      -46.0286  -19.3060   33.4327 H         1 DB8         0.0370
     56 HAQ       -47.7942  -16.3451   32.1209 H         1 DB8         0.0370
     57 HAQA      -46.7268  -17.7075   31.6400 H         1 DB8         0.0370
     58 HAR       -47.8304  -20.8864   33.8237 H         1 DB8         0.0368
     59 HARA      -48.9317  -19.5699   34.3534 H         1 DB8         0.0368
     60 HAS       -49.5790  -17.9318   32.7136 H         1 DB8         0.0368
     61 HASA      -49.0596  -18.1717   31.0109 H         1 DB8         0.0368
     62 HNAU      -42.2952   -8.6691   33.5748 H         1 DB8         0.4510
     63 H01       -39.0639   -2.1274   34.8036 H         1 DB8         0.0471
     64 H01A      -39.4289   -2.4712   33.0787 H         1 DB8         0.0471
     65 H01B      -38.7062   -3.7477   34.1155 H         1 DB8         0.0471
@<TRIPOS>BOND
     1    1   22 1
     2    1   37 1
     3    1   38 1
     4    1   39 1
     5    2   24 1
     6    2   36 1
     7    3   40 1
     8    3   41 1
     9    3   13 1
    10    3   34 1
    11    4    7 3
    12    5   25 1
    13    6   26 1
    14    7   27 1
    15    8   42 1
    16    8   20 ar
    17    8   27 ar
    18    9   26 ar
    19    9   25 ar
    20    9   43 1
    21   10   44 1
    22   10   24 ar
    23   10   28 ar
    24   11   32 ar
    25   11   45 1
    26   11   30 ar
    27   12   33 ar
    28   12   46 1
    29   12   29 ar
    30   13   14 1
    31   13   47 1
    32   13   48 1
    33   14   49 1
    34   14   50 1
    35   14   23 1
    36   15   35 1
    37   15   51 1
    38   15   52 1
    39   15   53 1
    40   16   54 1
    41   16   55 1
    42   16   18 1
    43   16   34 1
    44   17   34 1
    45   17   56 1
    46   17   57 1
    47   17   19 1
    48   18   58 1
    49   18   59 1
    50   18   35 1
    51   19   35 1
    52   19   60 1
    53   19   61 1
    54   20   32 ar
    55   21   31 1
    56   21   62 1
    57   21   28 1
    58   22   29 1
    59   23   30 1
    60   24   25 ar
    61   26   28 ar
    62   27   31 ar
    63   29   30 ar
    64   31   33 ar
    65   32   33 ar
    66   36   63 1
    67   36   64 1
    68   36   65 1
@<TRIPOS>SUBSTRUCTURE
     1 DB8         1 GROUP   0 A     ****
@<TRIPOS>MOLECULE
[3-cyano-6-methoxy-7-[3-(4-methylpiperazin-4-ium-1-yl)propoxy]-1~{H}-quinolin-4-ylidene]-(2,4-dichloro-5-methoxy-phenyl)ammonium
   67    70     1     0     0
SMALL
USER_CHARGES

@<TRIPOS>ATOM
      1 CAA       -46.2890  -11.8980   31.9630 C.3       1 DB8         0.1153
      2 O02       -40.7340   -3.3480   34.4650 O.3       1 DB8        -0.3251
      3 CAC       -45.9370  -16.7140   33.9290 C.3       1 DB8         0.1763
      4 NAD       -42.0470   -5.6070   36.9580 N.1       1 DB8        -0.2583
      5 CL1       -41.6410   -2.5430   31.7040 Cl        1 DB8        -0.0045
      6 CL2       -43.8530   -7.4090   31.5070 Cl        1 DB8        -0.0410
      7 CAG       -42.6040   -6.4970   36.8710 C.1       1 DB8         0.1463
      8 CAH       -44.1270   -8.3740   37.7730 C.ar      1 DB8         0.2091
      9 CAI       -42.6710   -5.0430   31.8540 C.ar      1 DB8        -0.1149
     10 CAJ       -41.7470   -5.6360   34.3880 C.ar      1 DB8        -0.1127
     11 CAK       -45.8070  -11.4630   36.5110 C.ar      1 DB8        -0.2109
     12 CAL       -44.4960  -10.5590   34.1910 C.ar      1 DB8        -0.0765
     13 CAM       -46.3970  -15.2540   33.9000 C.3       1 DB8        -0.0898
     14 CAN       -46.3040  -14.6450   35.2980 C.3       1 DB8         0.1286
     15 CAO       -49.7410  -20.4620   32.0550 C.3       1 DB8         0.0847
     16 CAP       -46.9010  -18.9560   34.0040 C.3       1 DB8         0.1463
     17 CAQ       -47.5400  -17.3980   32.3130 C.3       1 DB8         0.1463
     18 CAR       -48.0990  -19.8290   33.6830 C.3       1 DB8         0.1056
     19 CAS       -48.7550  -18.2620   32.0640 C.3       1 DB8         0.1056
     20 NAT       -44.8800   -9.5430   37.6960 N.pl3     1 DB8        -0.5413
     21 NAU       -42.7700   -7.9670   34.2760 N.pl3     1 DB8        -0.2377
     22 OAV       -45.3390  -12.3390   32.8620 O.3       1 DB8        -0.3129
     23 OAW       -46.8510  -13.3800   35.2230 O.3       1 DB8        -0.3113
     24 CAX       -41.4640   -4.3120   33.7870 C.ar      1 DB8         0.1161
     25 CAY       -41.9390   -4.0440   32.5110 C.ar      1 DB8         0.0318
     26 CAZ       -42.9410   -6.2980   32.4360 C.ar      1 DB8         0.0138
     27 CBA       -43.4290   -7.8160   36.7070 C.ar      1 DB8        -0.2178
     28 CBB       -42.4850   -6.6150   33.7650 C.ar      1 DB8        -0.0836
     29 CBC       -45.2610  -11.7280   34.1420 C.ar      1 DB8         0.0916
     30 CBD       -45.9310  -12.2080   35.3090 C.ar      1 DB8         0.1822
     31 CBE       -43.5260   -8.4920   35.4760 C.ar      1 DB8         0.5122
     32 CBF       -44.9960  -10.2460   36.5210 C.ar      1 DB8         0.1769
     33 CBG       -44.3210   -9.7500   35.3900 C.ar      1 DB8        -0.2020
     34 NBH       -47.1180  -17.5460   33.6690 N.3       1 DB8        -0.7441
     35 NBI       -48.5470  -19.6570   32.3240 N.4       1 DB8        -0.6837
     36 C01       -39.4020   -2.8960   34.0930 C.3       1 DB8         0.1093
     37 HAA       -46.2083  -12.4766   31.0309 H         1 DB8         0.0529
     38 HAAA      -46.1236  -10.8319   31.7483 H         1 DB8         0.0529
     39 HAAB      -47.2921  -12.0341   32.3934 H         1 DB8         0.0529
     40 HAC       -45.1731  -16.8732   33.1537 H         1 DB8         0.0503
     41 HACA      -45.5108  -16.9446   34.9165 H         1 DB8         0.0503
     42 HAH       -44.0820   -7.8660   38.7250 H         1 DB8         0.2126
     43 HAI       -43.0440   -4.8430   30.8600 H         1 DB8         0.1860
     44 HAJ       -41.3510   -5.8440   35.3710 H         1 DB8         0.1769
     45 HAK       -46.3070  -11.7920   37.4100 H         1 DB8         0.1647
     46 HAL       -44.0050  -10.2360   33.2850 H         1 DB8         0.1870
     47 HAM       -45.7559  -14.6811   33.2139 H         1 DB8         0.0780
     48 HAMA      -47.4400  -15.2050   33.5541 H         1 DB8         0.0780
     49 HAN       -46.8650  -15.2701   36.0083 H         1 DB8         0.0441
     50 HANA      -45.2494  -14.5953   35.6069 H         1 DB8         0.0441
     51 HAO       -49.5265  -21.5192   32.2702 H         1 DB8         0.1097
     52 HAOA      -50.0260  -20.3534   30.9981 H         1 DB8         0.1097
     53 HAOB      -50.5670  -20.1178   32.6947 H         1 DB8         0.1097
     54 HAP       -46.6821  -19.0151   35.0804 H         1 DB8         0.0757
     55 HAPA      -46.0286  -19.3060   33.4327 H         1 DB8         0.0757
     56 HAQ       -47.7942  -16.3451   32.1209 H         1 DB8         0.0757
     57 HAQA      -46.7268  -17.7075   31.6400 H         1 DB8         0.0757
     58 HAR       -47.8304  -20.8864   33.8237 H         1 DB8         0.1147
     59 HARA      -48.9317  -19.5699   34.3534 H         1 DB8         0.1147
     60 HAS       -49.5790  -17.9318   32.7136 H         1 DB8         0.1147
     61 HASA      -49.0596  -18.1717   31.0109 H         1 DB8         0.1147
     62 H01       -39.0639   -2.1274   34.8036 H         1 DB8         0.0591
     63 H01A      -39.4289   -2.4712   33.0787 H         1 DB8         0.0591
     64 H01B      -38.7062   -3.7477   34.1155 H         1 DB8         0.0591
     65 H65       -45.3986   -9.9230   38.5886 H         1 DB8         0.4876
     66 H66       -42.2952   -8.6691   33.5748 H         1 DB8         0.3358
     67 H67       -47.7591  -20.0022   31.6385 H         1 DB8         0.4479
@<TRIPOS>BOND
     1    1   22 1
     2    1   37 1
     3    1   38 1
     4    1   39 1
     5    2   24 1
     6    2   36 1
     7    3   40 1
     8    3   41 1
     9    3   13 1
    10    3   34 1
    11    4    7 3
    12    5   25 1
    13    6   26 1
    14    7   27 1
    15    8   42 1
    16    8   20 ar
    17    8   27 ar
    18    9   26 ar
    19    9   25 ar
    20    9   43 1
    21   10   44 1
    22   10   24 ar
    23   10   28 ar
    24   11   32 ar
    25   11   45 1
    26   11   30 ar
    27   12   33 ar
    28   12   46 1
    29   12   29 ar
    30   13   14 1
    31   13   47 1
    32   13   48 1
    33   14   49 1
    34   14   50 1
    35   14   23 1
    36   15   35 1
    37   15   51 1
    38   15   52 1
    39   15   53 1
    40   16   54 1
    41   16   55 1
    42   16   18 1
    43   16   34 1
    44   17   34 1
    45   17   56 1
    46   17   57 1
    47   17   19 1
    48   18   58 1
    49   18   59 1
    50   18   35 1
    51   19   35 1
    52   19   60 1
    53   19   61 1
    54   20   32 ar
    55   20   65 1
    56   21   31 2
    57   21   28 1
    58   21   66 1
    59   22   29 1
    60   23   30 1
    61   24   25 ar
    62   26   28 ar
    63   27   31 ar
    64   29   30 ar
    65   31   33 ar
    66   32   33 ar
    67   35   67 1
    68   36   62 1
    69   36   63 1
    70   36   64 1
@<TRIPOS>SUBSTRUCTURE
     1 DB8         1 GROUP   0 A     ****
@<TRIPOS>MOLECULE
4-(2,4-dichloro-5-methoxy-anilino)-6-methoxy-7-[3-(4-methylpiperazin-4-ium-1-yl)propoxy]-1,2-dihydroquinolin-2-ylium-3-carbonitrile
   67    70     1     0     0
SMALL
USER_CHARGES

@<TRIPOS>ATOM
      1 CAA       -46.2890  -11.8980   31.9630 C.3       1 DB8         0.1141
      2 O02       -40.7340   -3.3480   34.4650 O.3       1 DB8        -0.3255
      3 CAC       -45.9370  -16.7140   33.9290 C.3       1 DB8         0.1757
      4 NAD       -42.0470   -5.6070   36.9580 N.1       1 DB8        -0.2734
      5 CL1       -41.6410   -2.5430   31.7040 Cl        1 DB8        -0.0006
      6 CL2       -43.8530   -7.4090   31.5070 Cl        1 DB8        -0.0687
      7 CAG       -42.6040   -6.4970   36.8710 C.1       1 DB8         0.1679
      8 CAH       -44.1270   -8.3740   37.7730 C.cat     1 DB8         0.2003
      9 CAI       -42.6710   -5.0430   31.8540 C.ar      1 DB8        -0.0976
     10 CAJ       -41.7470   -5.6360   34.3880 C.ar      1 DB8        -0.1043
     11 CAK       -45.8070  -11.4630   36.5110 C.ar      1 DB8        -0.2085
     12 CAL       -44.4960  -10.5590   34.1910 C.ar      1 DB8        -0.0903
     13 CAM       -46.3970  -15.2540   33.9000 C.3       1 DB8        -0.0895
     14 CAN       -46.3040  -14.6450   35.2980 C.3       1 DB8         0.1344
     15 CAO       -49.7410  -20.4620   32.0550 C.3       1 DB8         0.0841
     16 CAP       -46.9010  -18.9560   34.0040 C.3       1 DB8         0.1421
     17 CAQ       -47.5400  -17.3980   32.3130 C.3       1 DB8         0.1421
     18 CAR       -48.0990  -19.8290   33.6830 C.3       1 DB8         0.1062
     19 CAS       -48.7550  -18.2620   32.0640 C.3       1 DB8         0.1062
     20 NAT       -44.8800   -9.5430   37.6960 N.pl3     1 DB8        -0.5386
     21 NAU       -42.7700   -7.9670   34.2760 N.pl3     1 DB8        -0.5531
     22 OAV       -45.3390  -12.3390   32.8620 O.3       1 DB8        -0.3264
     23 OAW       -46.8510  -13.3800   35.2230 O.3       1 DB8        -0.3214
     24 CAX       -41.4640   -4.3120   33.7870 C.ar      1 DB8         0.1235
     25 CAY       -41.9390   -4.0440   32.5110 C.ar      1 DB8         0.0382
     26 CAZ       -42.9410   -6.2980   32.4360 C.ar      1 DB8         0.0156
     27 CBA       -43.4290   -7.8160   36.7070 C.ar      1 DB8        -0.0957
     28 CBB       -42.4850   -6.6150   33.7650 C.ar      1 DB8         0.0484
     29 CBC       -45.2610  -11.7280   34.1420 C.ar      1 DB8         0.1032
     30 CBD       -45.9310  -12.2080   35.3090 C.ar      1 DB8         0.1852
     31 CBE       -43.5260   -8.4920   35.4760 C.ar      1 DB8         0.3722
     32 CBF       -44.9960  -10.2460   36.5210 C.ar      1 DB8         0.1812
     33 CBG       -44.3210   -9.7500   35.3900 C.ar      1 DB8        -0.1473
     34 NBH       -47.1180  -17.5460   33.6690 N.3       1 DB8        -0.7371
     35 NBI       -48.5470  -19.6570   32.3240 N.4       1 DB8        -0.6837
     36 C01       -39.4020   -2.8960   34.0930 C.3       1 DB8         0.1121
     37 HAA       -46.2083  -12.4766   31.0309 H         1 DB8         0.0592
     38 HAAA      -46.1236  -10.8319   31.7483 H         1 DB8         0.0592
     39 HAAB      -47.2921  -12.0341   32.3934 H         1 DB8         0.0592
     40 HAC       -45.1731  -16.8732   33.1537 H         1 DB8         0.0512
     41 HACA      -45.5108  -16.9446   34.9165 H         1 DB8         0.0512
     42 HAH       -44.0820   -7.8660   38.7250 H         1 DB8         0.2133
     43 HAI       -43.0440   -4.8430   30.8600 H         1 DB8         0.1864
     44 HAJ       -41.3510   -5.8440   35.3710 H         1 DB8         0.1736
     45 HAK       -46.3070  -11.7920   37.4100 H         1 DB8         0.1655
     46 HAL       -44.0050  -10.2360   33.2850 H         1 DB8         0.1708
     47 HAM       -45.7559  -14.6811   33.2139 H         1 DB8         0.0756
     48 HAMA      -47.4400  -15.2050   33.5541 H         1 DB8         0.0756
     49 HAN       -46.8650  -15.2701   36.0083 H         1 DB8         0.0490
     50 HANA      -45.2494  -14.5953   35.6069 H         1 DB8         0.0490
     51 HAO       -49.5265  -21.5192   32.2702 H         1 DB8         0.1099
     52 HAOA      -50.0260  -20.3534   30.9981 H         1 DB8         0.1099
     53 HAOB      -50.5670  -20.1178   32.6947 H         1 DB8         0.1099
     54 HAP       -46.6821  -19.0151   35.0804 H         1 DB8         0.0761
     55 HAPA      -46.0286  -19.3060   33.4327 H         1 DB8         0.0761
     56 HAQ       -47.7942  -16.3451   32.1209 H         1 DB8         0.0761
     57 HAQA      -46.7268  -17.7075   31.6400 H         1 DB8         0.0761
     58 HAR       -47.8304  -20.8864   33.8237 H         1 DB8         0.1149
     59 HARA      -48.9317  -19.5699   34.3534 H         1 DB8         0.1149
     60 HAS       -49.5790  -17.9318   32.7136 H         1 DB8         0.1149
     61 HASA      -49.0596  -18.1717   31.0109 H         1 DB8         0.1149
     62 HNAU      -42.2952   -8.6691   33.5748 H         1 DB8         0.4711
     63 H01       -39.0639   -2.1274   34.8036 H         1 DB8         0.0570
     64 H01A      -39.4289   -2.4712   33.0787 H         1 DB8         0.0570
     65 H01B      -38.7062   -3.7477   34.1155 H         1 DB8         0.0570
     66 H66       -47.7591  -20.0022   31.6385 H         1 DB8         0.4460
     67 H67       -45.3986   -9.9230   38.5886 H         1 DB8         0.4884
@<TRIPOS>BOND
     1    1   22 1
     2    1   37 1
     3    1   38 1
     4    1   39 1
     5    2   24 1
     6    2   36 1
     7    3   40 1
     8    3   41 1
     9    3   13 1
    10    3   34 1
    11    4    7 3
    12    5   25 1
    13    6   26 1
    14    7   27 1
    15    8   42 1
    16    8   20 ar
    17    8   27 ar
    18    9   26 ar
    19    9   25 ar
    20    9   43 1
    21   10   44 1
    22   10   24 ar
    23   10   28 ar
    24   11   32 ar
    25   11   45 1
    26   11   30 ar
    27   12   33 ar
    28   12   46 1
    29   12   29 ar
    30   13   14 1
    31   13   47 1
    32   13   48 1
    33   14   49 1
    34   14   50 1
    35   14   23 1
    36   15   35 1
    37   15   51 1
    38   15   52 1
    39   15   53 1
    40   16   54 1
    41   16   55 1
    42   16   18 1
    43   16   34 1
    44   17   34 1
    45   17   56 1
    46   17   57 1
    47   17   19 1
    48   18   58 1
    49   18   59 1
    50   18   35 1
    51   19   35 1
    52   19   60 1
    53   19   61 1
    54   20   32 ar
    55   20   67 1
    56   21   31 1
    57   21   62 1
    58   21   28 1
    59   22   29 1
    60   23   30 1
    61   24   25 ar
    62   26   28 ar
    63   27   31 ar
    64   29   30 ar
    65   31   33 ar
    66   32   33 ar
    67   35   66 1
    68   36   63 1
    69   36   64 1
    70   36   65 1
@<TRIPOS>SUBSTRUCTURE
     1 DB8         1 GROUP   0 A     ****
@<TRIPOS>MOLECULE
[3-cyano-6-methoxy-7-[3-(4-methylpiperazin-4-ium-1-yl)propoxy]-4-quinolyl]-(2,4-dichloro-5-methoxy-phenyl)azanide
   65    68     1     0     0
SMALL
USER_CHARGES

@<TRIPOS>ATOM
      1 CAA       -46.2890  -11.8980   31.9630 C.3       1 DB8         0.1194
      2 O02       -40.7340   -3.3480   34.4650 O.3       1 DB8        -0.3446
      3 CAC       -45.9370  -16.7140   33.9290 C.3       1 DB8         0.1660
      4 NAD       -42.0470   -5.6070   36.9580 N.1       1 DB8        -0.4529
      5 CL1       -41.6410   -2.5430   31.7040 Cl        1 DB8        -0.1150
      6 CL2       -43.8530   -7.4090   31.5070 Cl        1 DB8        -0.1097
      7 CAG       -42.6040   -6.4970   36.8710 C.1       1 DB8         0.2865
      8 CAH       -44.1270   -8.3740   37.7730 C.ar      1 DB8         0.5138
      9 CAI       -42.6710   -5.0430   31.8540 C.ar      1 DB8        -0.0893
     10 CAJ       -41.7470   -5.6360   34.3880 C.ar      1 DB8        -0.2109
     11 CAK       -45.8070  -11.4630   36.5110 C.ar      1 DB8        -0.2459
     12 CAL       -44.4960  -10.5590   34.1910 C.ar      1 DB8        -0.0455
     13 CAM       -46.3970  -15.2540   33.9000 C.3       1 DB8        -0.0935
     14 CAN       -46.3040  -14.6450   35.2980 C.3       1 DB8         0.1300
     15 CAO       -49.7410  -20.4620   32.0550 C.3       1 DB8         0.0850
     16 CAP       -46.9010  -18.9560   34.0040 C.3       1 DB8         0.1426
     17 CAQ       -47.5400  -17.3980   32.3130 C.3       1 DB8         0.1426
     18 CAR       -48.0990  -19.8290   33.6830 C.3       1 DB8         0.1071
     19 CAS       -48.7550  -18.2620   32.0640 C.3       1 DB8         0.1071
     20 NAT       -44.8800   -9.5430   37.6960 N.ar      1 DB8        -0.7929
     21 NAU       -42.7700   -7.9670   34.2760 N.2       1 DB8        -0.4917
     22 OAV       -45.3390  -12.3390   32.8620 O.3       1 DB8        -0.3224
     23 OAW       -46.8510  -13.3800   35.2230 O.3       1 DB8        -0.3307
     24 CAX       -41.4640   -4.3120   33.7870 C.ar      1 DB8         0.1243
     25 CAY       -41.9390   -4.0440   32.5110 C.ar      1 DB8        -0.0450
     26 CAZ       -42.9410   -6.2980   32.4360 C.ar      1 DB8        -0.0258
     27 CBA       -43.4290   -7.8160   36.7070 C.ar      1 DB8        -0.3618
     28 CBB       -42.4850   -6.6150   33.7650 C.ar      1 DB8         0.2149
     29 CBC       -45.2610  -11.7280   34.1420 C.ar      1 DB8        -0.0030
     30 CBD       -45.9310  -12.2080   35.3090 C.ar      1 DB8         0.0883
     31 CBE       -43.5260   -8.4920   35.4760 C.ar      1 DB8         0.2929
     32 CBF       -44.9960  -10.2460   36.5210 C.ar      1 DB8         0.4636
     33 CBG       -44.3210   -9.7500   35.3900 C.ar      1 DB8        -0.1937
     34 NBH       -47.1180  -17.5460   33.6690 N.3       1 DB8        -0.7326
     35 NBI       -48.5470  -19.6570   32.3240 N.4       1 DB8        -0.6842
     36 C01       -39.4020   -2.8960   34.0930 C.3       1 DB8         0.1194
     37 HAA       -46.2083  -12.4766   31.0309 H         1 DB8         0.0248
     38 HAAA      -46.1236  -10.8319   31.7483 H         1 DB8         0.0248
     39 HAAB      -47.2921  -12.0341   32.3934 H         1 DB8         0.0248
     40 HAC       -45.1731  -16.8732   33.1537 H         1 DB8         0.0507
     41 HACA      -45.5108  -16.9446   34.9165 H         1 DB8         0.0507
     42 HAH       -44.0820   -7.8660   38.7250 H         1 DB8         0.0013
     43 HAI       -43.0440   -4.8430   30.8600 H         1 DB8         0.1434
     44 HAJ       -41.3510   -5.8440   35.3710 H         1 DB8         0.1499
     45 HAK       -46.3070  -11.7920   37.4100 H         1 DB8         0.1383
     46 HAL       -44.0050  -10.2360   33.2850 H         1 DB8         0.1692
     47 HAM       -45.7559  -14.6811   33.2139 H         1 DB8         0.0651
     48 HAMA      -47.4400  -15.2050   33.5541 H         1 DB8         0.0651
     49 HAN       -46.8650  -15.2701   36.0083 H         1 DB8         0.0396
     50 HANA      -45.2494  -14.5953   35.6069 H         1 DB8         0.0396
     51 HAO       -49.5265  -21.5192   32.2702 H         1 DB8         0.1027
     52 HAOA      -50.0260  -20.3534   30.9981 H         1 DB8         0.1027
     53 HAOB      -50.5670  -20.1178   32.6947 H         1 DB8         0.1027
     54 HAP       -46.6821  -19.0151   35.0804 H         1 DB8         0.0776
     55 HAPA      -46.0286  -19.3060   33.4327 H         1 DB8         0.0776
     56 HAQ       -47.7942  -16.3451   32.1209 H         1 DB8         0.0776
     57 HAQA      -46.7268  -17.7075   31.6400 H         1 DB8         0.0776
     58 HAR       -47.8304  -20.8864   33.8237 H         1 DB8         0.1071
     59 HARA      -48.9317  -19.5699   34.3534 H         1 DB8         0.1071
     60 HAS       -49.5790  -17.9318   32.7136 H         1 DB8         0.1071
     61 HASA      -49.0596  -18.1717   31.0109 H         1 DB8         0.1071
     62 H01       -39.0639   -2.1274   34.8036 H         1 DB8         0.0369
     63 H01A      -39.4289   -2.4712   33.0787 H         1 DB8         0.0369
     64 H01B      -38.7062   -3.7477   34.1155 H         1 DB8         0.0369
     65 H65       -47.7591  -20.0022   31.6385 H         1 DB8         0.4435
@<TRIPOS>BOND
     1    1   22 1
     2    1   37 1
     3    1   38 1
     4    1   39 1
     5    2   24 1
     6    2   36 1
     7    3   40 1
     8    3   41 1
     9    3   13 1
    10    3   34 1
    11    4    7 3
    12    5   25 1
    13    6   26 1
    14    7   27 1
    15    8   42 1
    16    8   20 ar
    17    8   27 ar
    18    9   26 ar
    19    9   25 ar
    20    9   43 1
    21   10   44 1
    22   10   24 ar
    23   10   28 ar
    24   11   32 ar
    25   11   45 1
    26   11   30 ar
    27   12   33 ar
    28   12   46 1
    29   12   29 ar
    30   13   14 1
    31   13   47 1
    32   13   48 1
    33   14   49 1
    34   14   50 1
    35   14   23 1
    36   15   35 1
    37   15   51 1
    38   15   52 1
    39   15   53 1
    40   16   54 1
    41   16   55 1
    42   16   18 1
    43   16   34 1
    44   17   34 1
    45   17   56 1
    46   17   57 1
    47   17   19 1
    48   18   58 1
    49   18   59 1
    50   18   35 1
    51   19   35 1
    52   19   60 1
    53   19   61 1
    54   20   32 ar
    55   21   31 1
    56   21   28 1
    57   22   29 1
    58   23   30 1
    59   24   25 ar
    60   26   28 ar
    61   27   31 ar
    62   29   30 ar
    63   31   33 ar
    64   32   33 ar
    65   35   65 1
    66   36   62 1
    67   36   63 1
    68   36   64 1
@<TRIPOS>SUBSTRUCTURE
     1 DB8         1 GROUP   0 A     ****
@<TRIPOS>MOLECULE
[3-cyano-6-methoxy-7-[3-(4-methylpiperazin-1-ium-1-yl)propoxy]-1~{H}-quinolin-4-ylidene]-(2,4-dichloro-5-methoxy-phenyl)ammonium
   67    70     1     0     0
SMALL
USER_CHARGES

@<TRIPOS>ATOM
      1 CAA       -46.2890  -11.8980   31.9630 C.3       1 DB8         0.1118
      2 O02       -40.7340   -3.3480   34.4650 O.3       1 DB8        -0.3364
      3 CAC       -45.9370  -16.7140   33.9290 C.3       1 DB8         0.1020
      4 NAD       -42.0470   -5.6070   36.9580 N.1       1 DB8        -0.2518
      5 CL1       -41.6410   -2.5430   31.7040 Cl        1 DB8        -0.0011
      6 CL2       -43.8530   -7.4090   31.5070 Cl        1 DB8        -0.0327
      7 CAG       -42.6040   -6.4970   36.8710 C.1       1 DB8         0.1420
      8 CAH       -44.1270   -8.3740   37.7730 C.ar      1 DB8         0.2068
      9 CAI       -42.6710   -5.0430   31.8540 C.ar      1 DB8        -0.1064
     10 CAJ       -41.7470   -5.6360   34.3880 C.ar      1 DB8        -0.1205
     11 CAK       -45.8070  -11.4630   36.5110 C.ar      1 DB8        -0.2640
     12 CAL       -44.4960  -10.5590   34.1910 C.ar      1 DB8        -0.0613
     13 CAM       -46.3970  -15.2540   33.9000 C.3       1 DB8        -0.1199
     14 CAN       -46.3040  -14.6450   35.2980 C.3       1 DB8         0.1235
     15 CAO       -49.7410  -20.4620   32.0550 C.3       1 DB8         0.1524
     16 CAP       -46.9010  -18.9560   34.0040 C.3       1 DB8         0.1073
     17 CAQ       -47.5400  -17.3980   32.3130 C.3       1 DB8         0.1073
     18 CAR       -48.0990  -19.8290   33.6830 C.3       1 DB8         0.1520
     19 CAS       -48.7550  -18.2620   32.0640 C.3       1 DB8         0.1520
     20 NAT       -44.8800   -9.5430   37.6960 N.pl3     1 DB8        -0.5470
     21 NAU       -42.7700   -7.9670   34.2760 N.pl3     1 DB8        -0.2317
     22 OAV       -45.3390  -12.3390   32.8620 O.3       1 DB8        -0.3199
     23 OAW       -46.8510  -13.3800   35.2230 O.3       1 DB8        -0.2846
     24 CAX       -41.4640   -4.3120   33.7870 C.ar      1 DB8         0.1058
     25 CAY       -41.9390   -4.0440   32.5110 C.ar      1 DB8         0.0325
     26 CAZ       -42.9410   -6.2980   32.4360 C.ar      1 DB8         0.0222
     27 CBA       -43.4290   -7.8160   36.7070 C.ar      1 DB8        -0.2135
     28 CBB       -42.4850   -6.6150   33.7650 C.ar      1 DB8        -0.0895
     29 CBC       -45.2610  -11.7280   34.1420 C.ar      1 DB8         0.0882
     30 CBD       -45.9310  -12.2080   35.3090 C.ar      1 DB8         0.1994
     31 CBE       -43.5260   -8.4920   35.4760 C.ar      1 DB8         0.5143
     32 CBF       -44.9960  -10.2460   36.5210 C.ar      1 DB8         0.1999
     33 CBG       -44.3210   -9.7500   35.3900 C.ar      1 DB8        -0.2143
     34 NBH       -47.1180  -17.5460   33.6690 N.4       1 DB8        -0.6827
     35 NBI       -48.5470  -19.6570   32.3240 N.3       1 DB8        -0.7402
     36 C01       -39.4020   -2.8960   34.0930 C.3       1 DB8         0.1123
     37 HAA       -46.2083  -12.4766   31.0309 H         1 DB8         0.0590
     38 HAAA      -46.1236  -10.8319   31.7483 H         1 DB8         0.0590
     39 HAAB      -47.2921  -12.0341   32.3934 H         1 DB8         0.0590
     40 HAC       -45.1731  -16.8732   33.1537 H         1 DB8         0.1039
     41 HACA      -45.5108  -16.9446   34.9165 H         1 DB8         0.1039
     42 HAH       -44.0820   -7.8660   38.7250 H         1 DB8         0.2143
     43 HAI       -43.0440   -4.8430   30.8600 H         1 DB8         0.1916
     44 HAJ       -41.3510   -5.8440   35.3710 H         1 DB8         0.1740
     45 HAK       -46.3070  -11.7920   37.4100 H         1 DB8         0.1546
     46 HAL       -44.0050  -10.2360   33.2850 H         1 DB8         0.1887
     47 HAM       -45.7559  -14.6811   33.2139 H         1 DB8         0.0904
     48 HAMA      -47.4400  -15.2050   33.5541 H         1 DB8         0.0904
     49 HAN       -46.8650  -15.2701   36.0083 H         1 DB8         0.0591
     50 HANA      -45.2494  -14.5953   35.6069 H         1 DB8         0.0591
     51 HAO       -49.5265  -21.5192   32.2702 H         1 DB8         0.0614
     52 HAOA      -50.0260  -20.3534   30.9981 H         1 DB8         0.0614
     53 HAOB      -50.5670  -20.1178   32.6947 H         1 DB8         0.0614
     54 HAP       -46.6821  -19.0151   35.0804 H         1 DB8         0.1109
     55 HAPA      -46.0286  -19.3060   33.4327 H         1 DB8         0.1109
     56 HAQ       -47.7942  -16.3451   32.1209 H         1 DB8         0.1109
     57 HAQA      -46.7268  -17.7075   31.6400 H         1 DB8         0.1109
     58 HAR       -47.8304  -20.8864   33.8237 H         1 DB8         0.0743
     59 HARA      -48.9317  -19.5699   34.3534 H         1 DB8         0.0743
     60 HAS       -49.5790  -17.9318   32.7136 H         1 DB8         0.0743
     61 HASA      -49.0596  -18.1717   31.0109 H         1 DB8         0.0743
     62 H01       -39.0639   -2.1274   34.8036 H         1 DB8         0.0600
     63 H01A      -39.4289   -2.4712   33.0787 H         1 DB8         0.0600
     64 H01B      -38.7062   -3.7477   34.1155 H         1 DB8         0.0600
     65 H65       -45.3986   -9.9230   38.5886 H         1 DB8         0.4854
     66 H66       -42.2952   -8.6691   33.5748 H         1 DB8         0.3366
     67 H67       -47.9374  -17.1850   34.3079 H         1 DB8         0.4515
@<TRIPOS>BOND
     1    1   22 1
     2    1   37 1
     3    1   38 1
     4    1   39 1
     5    2   24 1
     6    2   36 1
     7    3   40 1
     8    3   41 1
     9    3   13 1
    10    3   34 1
    11    4    7 3
    12    5   25 1
    13    6   26 1
    14    7   27 1
    15    8   42 1
    16    8   20 ar
    17    8   27 ar
    18    9   26 ar
    19    9   25 ar
    20    9   43 1
    21   10   44 1
    22   10   24 ar
    23   10   28 ar
    24   11   32 ar
    25   11   45 1
    26   11   30 ar
    27   12   33 ar
    28   12   46 1
    29   12   29 ar
    30   13   14 1
    31   13   47 1
    32   13   48 1
    33   14   49 1
    34   14   50 1
    35   14   23 1
    36   15   35 1
    37   15   51 1
    38   15   52 1
    39   15   53 1
    40   16   54 1
    41   16   55 1
    42   16   18 1
    43   16   34 1
    44   17   34 1
    45   17   56 1
    46   17   57 1
    47   17   19 1
    48   18   58 1
    49   18   59 1
    50   18   35 1
    51   19   35 1
    52   19   60 1
    53   19   61 1
    54   20   32 ar
    55   20   65 1
    56   21   31 2
    57   21   28 1
    58   21   66 1
    59   22   29 1
    60   23   30 1
    61   24   25 ar
    62   26   28 ar
    63   27   31 ar
    64   29   30 ar
    65   31   33 ar
    66   32   33 ar
    67   34   67 1
    68   36   62 1
    69   36   63 1
    70   36   64 1
@<TRIPOS>SUBSTRUCTURE
     1 DB8         1 GROUP   0 A     ****
@<TRIPOS>MOLECULE
4-(2,4-dichloro-5-methoxy-anilino)-6-methoxy-7-[3-(4-methylpiperazin-1-ium-1-yl)propoxy]-1,2-dihydroquinolin-2-ylium-3-carbonitrile
   67    70     1     0     0
SMALL
USER_CHARGES

@<TRIPOS>ATOM
      1 CAA       -46.2890  -11.8980   31.9630 C.3       1 DB8         0.1131
      2 O02       -40.7340   -3.3480   34.4650 O.3       1 DB8        -0.3268
      3 CAC       -45.9370  -16.7140   33.9290 C.3       1 DB8         0.1102
      4 NAD       -42.0470   -5.6070   36.9580 N.1       1 DB8        -0.2499
      5 CL1       -41.6410   -2.5430   31.7040 Cl        1 DB8         0.0034
      6 CL2       -43.8530   -7.4090   31.5070 Cl        1 DB8        -0.0429
      7 CAG       -42.6040   -6.4970   36.8710 C.1       1 DB8         0.1544
      8 CAH       -44.1270   -8.3740   37.7730 C.cat     1 DB8         0.2029
      9 CAI       -42.6710   -5.0430   31.8540 C.ar      1 DB8        -0.0970
     10 CAJ       -41.7470   -5.6360   34.3880 C.ar      1 DB8        -0.1236
     11 CAK       -45.8070  -11.4630   36.5110 C.ar      1 DB8        -0.1748
     12 CAL       -44.4960  -10.5590   34.1910 C.ar      1 DB8        -0.0914
     13 CAM       -46.3970  -15.2540   33.9000 C.3       1 DB8        -0.1271
     14 CAN       -46.3040  -14.6450   35.2980 C.3       1 DB8         0.1402
     15 CAO       -49.7410  -20.4620   32.0550 C.3       1 DB8         0.1503
     16 CAP       -46.9010  -18.9560   34.0040 C.3       1 DB8         0.1072
     17 CAQ       -47.5400  -17.3980   32.3130 C.3       1 DB8         0.1072
     18 CAR       -48.0990  -19.8290   33.6830 C.3       1 DB8         0.1491
     19 CAS       -48.7550  -18.2620   32.0640 C.3       1 DB8         0.1491
     20 NAT       -44.8800   -9.5430   37.6960 N.pl3     1 DB8        -0.5368
     21 NAU       -42.7700   -7.9670   34.2760 N.pl3     1 DB8        -0.5490
     22 OAV       -45.3390  -12.3390   32.8620 O.3       1 DB8        -0.3358
     23 OAW       -46.8510  -13.3800   35.2230 O.3       1 DB8        -0.3357
     24 CAX       -41.4640   -4.3120   33.7870 C.ar      1 DB8         0.1196
     25 CAY       -41.9390   -4.0440   32.5110 C.ar      1 DB8         0.0414
     26 CAZ       -42.9410   -6.2980   32.4360 C.ar      1 DB8         0.0336
     27 CBA       -43.4290   -7.8160   36.7070 C.ar      1 DB8        -0.0902
     28 CBB       -42.4850   -6.6150   33.7650 C.ar      1 DB8         0.0430
     29 CBC       -45.2610  -11.7280   34.1420 C.ar      1 DB8         0.1026
     30 CBD       -45.9310  -12.2080   35.3090 C.ar      1 DB8         0.1568
     31 CBE       -43.5260   -8.4920   35.4760 C.ar      1 DB8         0.3641
     32 CBF       -44.9960  -10.2460   36.5210 C.ar      1 DB8         0.1673
     33 CBG       -44.3210   -9.7500   35.3900 C.ar      1 DB8        -0.1353
     34 NBH       -47.1180  -17.5460   33.6690 N.4       1 DB8        -0.6866
     35 NBI       -48.5470  -19.6570   32.3240 N.3       1 DB8        -0.7375
     36 C01       -39.4020   -2.8960   34.0930 C.3       1 DB8         0.1134
     37 HAA       -46.2083  -12.4766   31.0309 H         1 DB8         0.0617
     38 HAAA      -46.1236  -10.8319   31.7483 H         1 DB8         0.0617
     39 HAAB      -47.2921  -12.0341   32.3934 H         1 DB8         0.0617
     40 HAC       -45.1731  -16.8732   33.1537 H         1 DB8         0.1076
     41 HACA      -45.5108  -16.9446   34.9165 H         1 DB8         0.1076
     42 HAH       -44.0820   -7.8660   38.7250 H         1 DB8         0.2171
     43 HAI       -43.0440   -4.8430   30.8600 H         1 DB8         0.1918
     44 HAJ       -41.3510   -5.8440   35.3710 H         1 DB8         0.1597
     45 HAK       -46.3070  -11.7920   37.4100 H         1 DB8         0.1693
     46 HAL       -44.0050  -10.2360   33.2850 H         1 DB8         0.1719
     47 HAM       -45.7559  -14.6811   33.2139 H         1 DB8         0.0804
     48 HAMA      -47.4400  -15.2050   33.5541 H         1 DB8         0.0804
     49 HAN       -46.8650  -15.2701   36.0083 H         1 DB8         0.0681
     50 HANA      -45.2494  -14.5953   35.6069 H         1 DB8         0.0681
     51 HAO       -49.5265  -21.5192   32.2702 H         1 DB8         0.0617
     52 HAOA      -50.0260  -20.3534   30.9981 H         1 DB8         0.0617
     53 HAOB      -50.5670  -20.1178   32.6947 H         1 DB8         0.0617
     54 HAP       -46.6821  -19.0151   35.0804 H         1 DB8         0.1097
     55 HAPA      -46.0286  -19.3060   33.4327 H         1 DB8         0.1097
     56 HAQ       -47.7942  -16.3451   32.1209 H         1 DB8         0.1097
     57 HAQA      -46.7268  -17.7075   31.6400 H         1 DB8         0.1097
     58 HAR       -47.8304  -20.8864   33.8237 H         1 DB8         0.0759
     59 HARA      -48.9317  -19.5699   34.3534 H         1 DB8         0.0759
     60 HAS       -49.5790  -17.9318   32.7136 H         1 DB8         0.0759
     61 HASA      -49.0596  -18.1717   31.0109 H         1 DB8         0.0759
     62 HNAU      -42.2952   -8.6691   33.5748 H         1 DB8         0.4738
     63 H01       -39.0639   -2.1274   34.8036 H         1 DB8         0.0553
     64 H01A      -39.4289   -2.4712   33.0787 H         1 DB8         0.0553
     65 H01B      -38.7062   -3.7477   34.1155 H         1 DB8         0.0553
     66 H66       -47.9374  -17.1850   34.3079 H         1 DB8         0.4457
     67 H67       -45.3986   -9.9230   38.5886 H         1 DB8         0.4912
@<TRIPOS>BOND
     1    1   22 1
     2    1   37 1
     3    1   38 1
     4    1   39 1
     5    2   24 1
     6    2   36 1
     7    3   40 1
     8    3   41 1
     9    3   13 1
    10    3   34 1
    11    4    7 3
    12    5   25 1
    13    6   26 1
    14    7   27 1
    15    8   42 1
    16    8   20 ar
    17    8   27 ar
    18    9   26 ar
    19    9   25 ar
    20    9   43 1
    21   10   44 1
    22   10   24 ar
    23   10   28 ar
    24   11   32 ar
    25   11   45 1
    26   11   30 ar
    27   12   33 ar
    28   12   46 1
    29   12   29 ar
    30   13   14 1
    31   13   47 1
    32   13   48 1
    33   14   49 1
    34   14   50 1
    35   14   23 1
    36   15   35 1
    37   15   51 1
    38   15   52 1
    39   15   53 1
    40   16   54 1
    41   16   55 1
    42   16   18 1
    43   16   34 1
    44   17   34 1
    45   17   56 1
    46   17   57 1
    47   17   19 1
    48   18   58 1
    49   18   59 1
    50   18   35 1
    51   19   35 1
    52   19   60 1
    53   19   61 1
    54   20   32 ar
    55   20   67 1
    56   21   31 1
    57   21   62 1
    58   21   28 1
    59   22   29 1
    60   23   30 1
    61   24   25 ar
    62   26   28 ar
    63   27   31 ar
    64   29   30 ar
    65   31   33 ar
    66   32   33 ar
    67   34   66 1
    68   36   63 1
    69   36   64 1
    70   36   65 1
@<TRIPOS>SUBSTRUCTURE
     1 DB8         1 GROUP   0 A     ****
@<TRIPOS>MOLECULE
[3-cyano-6-methoxy-7-[3-(4-methylpiperazin-1-yl)propoxy]-1~{H}-quinolin-4-ylidene]-(2,4-dichloro-5-methoxy-phenyl)ammonium
   66    69     1     0     0
SMALL
USER_CHARGES

@<TRIPOS>ATOM
      1 CAA       -46.2890  -11.8980   31.9630 C.3       1 DB8         0.1120
      2 O02       -40.7340   -3.3480   34.4650 O.3       1 DB8        -0.3316
      3 CAC       -45.9370  -16.7140   33.9290 C.3       1 DB8         0.1822
      4 NAD       -42.0470   -5.6070   36.9580 N.1       1 DB8        -0.2778
      5 CL1       -41.6410   -2.5430   31.7040 Cl        1 DB8        -0.0083
      6 CL2       -43.8530   -7.4090   31.5070 Cl        1 DB8        -0.0340
      7 CAG       -42.6040   -6.4970   36.8710 C.1       1 DB8         0.1570
      8 CAH       -44.1270   -8.3740   37.7730 C.ar      1 DB8         0.2070
      9 CAI       -42.6710   -5.0430   31.8540 C.ar      1 DB8        -0.1064
     10 CAJ       -41.7470   -5.6360   34.3880 C.ar      1 DB8        -0.1177
     11 CAK       -45.8070  -11.4630   36.5110 C.ar      1 DB8        -0.2215
     12 CAL       -44.4960  -10.5590   34.1910 C.ar      1 DB8        -0.0837
     13 CAM       -46.3970  -15.2540   33.9000 C.3       1 DB8        -0.0903
     14 CAN       -46.3040  -14.6450   35.2980 C.3       1 DB8         0.1286
     15 CAO       -49.7410  -20.4620   32.0550 C.3       1 DB8         0.1584
     16 CAP       -46.9010  -18.9560   34.0040 C.3       1 DB8         0.1723
     17 CAQ       -47.5400  -17.3980   32.3130 C.3       1 DB8         0.1723
     18 CAR       -48.0990  -19.8290   33.6830 C.3       1 DB8         0.1707
     19 CAS       -48.7550  -18.2620   32.0640 C.3       1 DB8         0.1707
     20 NAT       -44.8800   -9.5430   37.6960 N.pl3     1 DB8        -0.5352
     21 NAU       -42.7700   -7.9670   34.2760 N.pl3     1 DB8        -0.2514
     22 OAV       -45.3390  -12.3390   32.8620 O.3       1 DB8        -0.3156
     23 OAW       -46.8510  -13.3800   35.2230 O.3       1 DB8        -0.3084
     24 CAX       -41.4640   -4.3120   33.7870 C.ar      1 DB8         0.1025
     25 CAY       -41.9390   -4.0440   32.5110 C.ar      1 DB8         0.0335
     26 CAZ       -42.9410   -6.2980   32.4360 C.ar      1 DB8         0.0205
     27 CBA       -43.4290   -7.8160   36.7070 C.ar      1 DB8        -0.2266
     28 CBB       -42.4850   -6.6150   33.7650 C.ar      1 DB8        -0.0769
     29 CBC       -45.2610  -11.7280   34.1420 C.ar      1 DB8         0.0899
     30 CBD       -45.9310  -12.2080   35.3090 C.ar      1 DB8         0.2046
     31 CBE       -43.5260   -8.4920   35.4760 C.ar      1 DB8         0.5148
     32 CBF       -44.9960  -10.2460   36.5210 C.ar      1 DB8         0.1787
     33 CBG       -44.3210   -9.7500   35.3900 C.ar      1 DB8        -0.2112
     34 NBH       -47.1180  -17.5460   33.6690 N.3       1 DB8        -0.7393
     35 NBI       -48.5470  -19.6570   32.3240 N.3       1 DB8        -0.7381
     36 C01       -39.4020   -2.8960   34.0930 C.3       1 DB8         0.1114
     37 HAA       -46.2083  -12.4766   31.0309 H         1 DB8         0.0559
     38 HAAA      -46.1236  -10.8319   31.7483 H         1 DB8         0.0559
     39 HAAB      -47.2921  -12.0341   32.3934 H         1 DB8         0.0559
     40 HAC       -45.1731  -16.8732   33.1537 H         1 DB8         0.0299
     41 HACA      -45.5108  -16.9446   34.9165 H         1 DB8         0.0299
     42 HAH       -44.0820   -7.8660   38.7250 H         1 DB8         0.2079
     43 HAI       -43.0440   -4.8430   30.8600 H         1 DB8         0.1887
     44 HAJ       -41.3510   -5.8440   35.3710 H         1 DB8         0.1721
     45 HAK       -46.3070  -11.7920   37.4100 H         1 DB8         0.1710
     46 HAL       -44.0050  -10.2360   33.2850 H         1 DB8         0.1814
     47 HAM       -45.7559  -14.6811   33.2139 H         1 DB8         0.0755
     48 HAMA      -47.4400  -15.2050   33.5541 H         1 DB8         0.0755
     49 HAN       -46.8650  -15.2701   36.0083 H         1 DB8         0.0413
     50 HANA      -45.2494  -14.5953   35.6069 H         1 DB8         0.0413
     51 HAO       -49.5265  -21.5192   32.2702 H         1 DB8         0.0364
     52 HAOA      -50.0260  -20.3534   30.9981 H         1 DB8         0.0364
     53 HAOB      -50.5670  -20.1178   32.6947 H         1 DB8         0.0364
     54 HAP       -46.6821  -19.0151   35.0804 H         1 DB8         0.0358
     55 HAPA      -46.0286  -19.3060   33.4327 H         1 DB8         0.0358
     56 HAQ       -47.7942  -16.3451   32.1209 H         1 DB8         0.0358
     57 HAQA      -46.7268  -17.7075   31.6400 H         1 DB8         0.0358
     58 HAR       -47.8304  -20.8864   33.8237 H         1 DB8         0.0412
     59 HARA      -48.9317  -19.5699   34.3534 H         1 DB8         0.0412
     60 HAS       -49.5790  -17.9318   32.7136 H         1 DB8         0.0412
     61 HASA      -49.0596  -18.1717   31.0109 H         1 DB8         0.0412
     62 H01       -39.0639   -2.1274   34.8036 H         1 DB8         0.0560
     63 H01A      -39.4289   -2.4712   33.0787 H         1 DB8         0.0560
     64 H01B      -38.7062   -3.7477   34.1155 H         1 DB8         0.0560
     65 H65       -45.3986   -9.9230   38.5886 H         1 DB8         0.4895
     66 H66       -42.2952   -8.6691   33.5748 H         1 DB8         0.3292
@<TRIPOS>BOND
     1    1   22 1
     2    1   37 1
     3    1   38 1
     4    1   39 1
     5    2   24 1
     6    2   36 1
     7    3   40 1
     8    3   41 1
     9    3   13 1
    10    3   34 1
    11    4    7 3
    12    5   25 1
    13    6   26 1
    14    7   27 1
    15    8   42 1
    16    8   20 ar
    17    8   27 ar
    18    9   26 ar
    19    9   25 ar
    20    9   43 1
    21   10   44 1
    22   10   24 ar
    23   10   28 ar
    24   11   32 ar
    25   11   45 1
    26   11   30 ar
    27   12   33 ar
    28   12   46 1
    29   12   29 ar
    30   13   14 1
    31   13   47 1
    32   13   48 1
    33   14   49 1
    34   14   50 1
    35   14   23 1
    36   15   35 1
    37   15   51 1
    38   15   52 1
    39   15   53 1
    40   16   54 1
    41   16   55 1
    42   16   18 1
    43   16   34 1
    44   17   34 1
    45   17   56 1
    46   17   57 1
    47   17   19 1
    48   18   58 1
    49   18   59 1
    50   18   35 1
    51   19   35 1
    52   19   60 1
    53   19   61 1
    54   20   32 ar
    55   20   65 1
    56   21   31 2
    57   21   28 1
    58   21   66 1
    59   22   29 1
    60   23   30 1
    61   24   25 ar
    62   26   28 ar
    63   27   31 ar
    64   29   30 ar
    65   31   33 ar
    66   32   33 ar
    67   36   62 1
    68   36   63 1
    69   36   64 1
@<TRIPOS>SUBSTRUCTURE
     1 DB8         1 GROUP   0 A     ****
@<TRIPOS>MOLECULE
4-(2,4-dichloro-5-methoxy-anilino)-6-methoxy-7-[3-(4-methylpiperazin-1-yl)propoxy]-1,2-dihydroquinolin-2-ylium-3-carbonitrile
   66    69     1     0     0
SMALL
USER_CHARGES

@<TRIPOS>ATOM
      1 CAA       -46.2890  -11.8980   31.9630 C.3       1 DB8         0.1123
      2 O02       -40.7340   -3.3480   34.4650 O.3       1 DB8        -0.3269
      3 CAC       -45.9370  -16.7140   33.9290 C.3       1 DB8         0.1776
      4 NAD       -42.0470   -5.6070   36.9580 N.1       1 DB8        -0.2578
      5 CL1       -41.6410   -2.5430   31.7040 Cl        1 DB8        -0.0226
      6 CL2       -43.8530   -7.4090   31.5070 Cl        1 DB8        -0.0928
      7 CAG       -42.6040   -6.4970   36.8710 C.1       1 DB8         0.1519
      8 CAH       -44.1270   -8.3740   37.7730 C.cat     1 DB8         0.1809
      9 CAI       -42.6710   -5.0430   31.8540 C.ar      1 DB8        -0.0831
     10 CAJ       -41.7470   -5.6360   34.3880 C.ar      1 DB8        -0.1499
     11 CAK       -45.8070  -11.4630   36.5110 C.ar      1 DB8        -0.2384
     12 CAL       -44.4960  -10.5590   34.1910 C.ar      1 DB8        -0.0660
     13 CAM       -46.3970  -15.2540   33.9000 C.3       1 DB8        -0.0915
     14 CAN       -46.3040  -14.6450   35.2980 C.3       1 DB8         0.1340
     15 CAO       -49.7410  -20.4620   32.0550 C.3       1 DB8         0.1550
     16 CAP       -46.9010  -18.9560   34.0040 C.3       1 DB8         0.1667
     17 CAQ       -47.5400  -17.3980   32.3130 C.3       1 DB8         0.1667
     18 CAR       -48.0990  -19.8290   33.6830 C.3       1 DB8         0.1686
     19 CAS       -48.7550  -18.2620   32.0640 C.3       1 DB8         0.1686
     20 NAT       -44.8800   -9.5430   37.6960 N.pl3     1 DB8        -0.4919
     21 NAU       -42.7700   -7.9670   34.2760 N.pl3     1 DB8        -0.6262
     22 OAV       -45.3390  -12.3390   32.8620 O.3       1 DB8        -0.3164
     23 OAW       -46.8510  -13.3800   35.2230 O.3       1 DB8        -0.3110
     24 CAX       -41.4640   -4.3120   33.7870 C.ar      1 DB8         0.1390
     25 CAY       -41.9390   -4.0440   32.5110 C.ar      1 DB8         0.0064
     26 CAZ       -42.9410   -6.2980   32.4360 C.ar      1 DB8        -0.0199
     27 CBA       -43.4290   -7.8160   36.7070 C.ar      1 DB8        -0.0813
     28 CBB       -42.4850   -6.6150   33.7650 C.ar      1 DB8         0.1212
     29 CBC       -45.2610  -11.7280   34.1420 C.ar      1 DB8         0.0991
     30 CBD       -45.9310  -12.2080   35.3090 C.ar      1 DB8         0.2226
     31 CBE       -43.5260   -8.4920   35.4760 C.ar      1 DB8         0.3564
     32 CBF       -44.9960  -10.2460   36.5210 C.ar      1 DB8         0.1697
     33 CBG       -44.3210   -9.7500   35.3900 C.ar      1 DB8        -0.1042
     34 NBH       -47.1180  -17.5460   33.6690 N.3       1 DB8        -0.7282
     35 NBI       -48.5470  -19.6570   32.3240 N.3       1 DB8        -0.7333
     36 C01       -39.4020   -2.8960   34.0930 C.3       1 DB8         0.1125
     37 HAA       -46.2083  -12.4766   31.0309 H         1 DB8         0.0589
     38 HAAA      -46.1236  -10.8319   31.7483 H         1 DB8         0.0589
     39 HAAB      -47.2921  -12.0341   32.3934 H         1 DB8         0.0589
     40 HAC       -45.1731  -16.8732   33.1537 H         1 DB8         0.0316
     41 HACA      -45.5108  -16.9446   34.9165 H         1 DB8         0.0316
     42 HAH       -44.0820   -7.8660   38.7250 H         1 DB8         0.2129
     43 HAI       -43.0440   -4.8430   30.8600 H         1 DB8         0.1795
     44 HAJ       -41.3510   -5.8440   35.3710 H         1 DB8         0.1692
     45 HAK       -46.3070  -11.7920   37.4100 H         1 DB8         0.1726
     46 HAL       -44.0050  -10.2360   33.2850 H         1 DB8         0.1960
     47 HAM       -45.7559  -14.6811   33.2139 H         1 DB8         0.0745
     48 HAMA      -47.4400  -15.2050   33.5541 H         1 DB8         0.0745
     49 HAN       -46.8650  -15.2701   36.0083 H         1 DB8         0.0471
     50 HANA      -45.2494  -14.5953   35.6069 H         1 DB8         0.0471
     51 HAO       -49.5265  -21.5192   32.2702 H         1 DB8         0.0370
     52 HAOA      -50.0260  -20.3534   30.9981 H         1 DB8         0.0370
     53 HAOB      -50.5670  -20.1178   32.6947 H         1 DB8         0.0370
     54 HAP       -46.6821  -19.0151   35.0804 H         1 DB8         0.0366
     55 HAPA      -46.0286  -19.3060   33.4327 H         1 DB8         0.0366
     56 HAQ       -47.7942  -16.3451   32.1209 H         1 DB8         0.0366
     57 HAQA      -46.7268  -17.7075   31.6400 H         1 DB8         0.0366
     58 HAR       -47.8304  -20.8864   33.8237 H         1 DB8         0.0420
     59 HARA      -48.9317  -19.5699   34.3534 H         1 DB8         0.0420
     60 HAS       -49.5790  -17.9318   32.7136 H         1 DB8         0.0420
     61 HASA      -49.0596  -18.1717   31.0109 H         1 DB8         0.0420
     62 HNAU      -42.2952   -8.6691   33.5748 H         1 DB8         0.4388
     63 H01       -39.0639   -2.1274   34.8036 H         1 DB8         0.0538
     64 H01A      -39.4289   -2.4712   33.0787 H         1 DB8         0.0538
     65 H01B      -38.7062   -3.7477   34.1155 H         1 DB8         0.0538
     66 H66       -45.3986   -9.9230   38.5886 H         1 DB8         0.4931
@<TRIPOS>BOND
     1    1   22 1
     2    1   37 1
     3    1   38 1
     4    1   39 1
     5    2   24 1
     6    2   36 1
     7    3   40 1
     8    3   41 1
     9    3   13 1
    10    3   34 1
    11    4    7 3
    12    5   25 1
    13    6   26 1
    14    7   27 1
    15    8   42 1
    16    8   20 ar
    17    8   27 ar
    18    9   26 ar
    19    9   25 ar
    20    9   43 1
    21   10   44 1
    22   10   24 ar
    23   10   28 ar
    24   11   32 ar
    25   11   45 1
    26   11   30 ar
    27   12   33 ar
    28   12   46 1
    29   12   29 ar
    30   13   14 1
    31   13   47 1
    32   13   48 1
    33   14   49 1
    34   14   50 1
    35   14   23 1
    36   15   35 1
    37   15   51 1
    38   15   52 1
    39   15   53 1
    40   16   54 1
    41   16   55 1
    42   16   18 1
    43   16   34 1
    44   17   34 1
    45   17   56 1
    46   17   57 1
    47   17   19 1
    48   18   58 1
    49   18   59 1
    50   18   35 1
    51   19   35 1
    52   19   60 1
    53   19   61 1
    54   20   32 ar
    55   20   66 1
    56   21   31 1
    57   21   62 1
    58   21   28 1
    59   22   29 1
    60   23   30 1
    61   24   25 ar
    62   26   28 ar
    63   27   31 ar
    64   29   30 ar
    65   31   33 ar
    66   32   33 ar
    67   36   63 1
    68   36   64 1
    69   36   65 1
@<TRIPOS>SUBSTRUCTURE
     1 DB8         1 GROUP   0 A     ****
