@<TRIPOS>MOLECULE
DB8
   65    68     1     0     0
SMALL
NO_CHARGES

@<TRIPOS>ATOM
      1  CAA      -46.2890  -11.8980   31.9630 C.3       1 DB8         0.0000
      2  O02      -40.7340   -3.3480   34.4650 O.3       1 DB8         0.0000
      3  CAC      -45.9370  -16.7140   33.9290 C.3       1 DB8         0.0000
      4  NAD      -42.0470   -5.6070   36.9580 N.1       1 DB8         0.0000
      5 CL1       -41.6410   -2.5430   31.7040 Cl        1 DB8         0.0000
      6 CL2       -43.8530   -7.4090   31.5070 Cl        1 DB8         0.0000
      7  CAG      -42.6040   -6.4970   36.8710 C.1       1 DB8         0.0000
      8  CAH      -44.1270   -8.3740   37.7730 C.ar      1 DB8         0.0000
      9  CAI      -42.6710   -5.0430   31.8540 C.ar      1 DB8         0.0000
     10  CAJ      -41.7470   -5.6360   34.3880 C.ar      1 DB8         0.0000
     11  CAK      -45.8070  -11.4630   36.5110 C.ar      1 DB8         0.0000
     12  CAL      -44.4960  -10.5590   34.1910 C.ar      1 DB8         0.0000
     13  CAM      -46.3970  -15.2540   33.9000 C.3       1 DB8         0.0000
     14  CAN      -46.3040  -14.6450   35.2980 C.3       1 DB8         0.0000
     15  CAO      -49.7410  -20.4620   32.0550 C.3       1 DB8         0.0000
     16  CAP      -46.9010  -18.9560   34.0040 C.3       1 DB8         0.0000
     17  CAQ      -47.5400  -17.3980   32.3130 C.3       1 DB8         0.0000
     18  CAR      -48.0990  -19.8290   33.6830 C.3       1 DB8         0.0000
     19  CAS      -48.7550  -18.2620   32.0640 C.3       1 DB8         0.0000
     20  NAT      -44.8800   -9.5430   37.6960 N.ar      1 DB8         0.0000
     21  NAU      -42.7700   -7.9670   34.2760 N.pl3     1 DB8         0.0000
     22  OAV      -45.3390  -12.3390   32.8620 O.3       1 DB8         0.0000
     23  OAW      -46.8510  -13.3800   35.2230 O.3       1 DB8         0.0000
     24  CAX      -41.4640   -4.3120   33.7870 C.ar      1 DB8         0.0000
     25  CAY      -41.9390   -4.0440   32.5110 C.ar      1 DB8         0.0000
     26  CAZ      -42.9410   -6.2980   32.4360 C.ar      1 DB8         0.0000
     27  CBA      -43.4290   -7.8160   36.7070 C.ar      1 DB8         0.0000
     28  CBB      -42.4850   -6.6150   33.7650 C.ar      1 DB8         0.0000
     29  CBC      -45.2610  -11.7280   34.1420 C.ar      1 DB8         0.0000
     30  CBD      -45.9310  -12.2080   35.3090 C.ar      1 DB8         0.0000
     31  CBE      -43.5260   -8.4920   35.4760 C.ar      1 DB8         0.0000
     32  CBF      -44.9960  -10.2460   36.5210 C.ar      1 DB8         0.0000
     33  CBG      -44.3210   -9.7500   35.3900 C.ar      1 DB8         0.0000
     34  NBH      -47.1180  -17.5460   33.6690 N.3       1 DB8         0.0000
     35  NBI      -48.5470  -19.6570   32.3240 N.3       1 DB8         0.0000
     36  C01      -39.4020   -2.8960   34.0930 C.3       1 DB8         0.0000
     37  HAA      -46.2090  -12.4760   31.0310 H         1 DB8         0.0000
     38 HAAA      -47.2920  -12.0340   32.3930 H         1 DB8         0.0000
     39 HAAB      -46.1240  -10.8320   31.7480 H         1 DB8         0.0000
     40  HAC      -45.5080  -16.9580   34.9120 H         1 DB8         0.0000
     41 HACA      -45.1720  -16.8870   33.1580 H         1 DB8         0.0000
     42  HAH      -44.0820   -7.8660   38.7250 H         1 DB8         0.0000
     43  HAI      -43.0440   -4.8430   30.8600 H         1 DB8         0.0000
     44  HAJ      -41.3510   -5.8440   35.3710 H         1 DB8         0.0000
     45  HAK      -46.3070  -11.7920   37.4100 H         1 DB8         0.0000
     46  HAL      -44.0050  -10.2360   33.2850 H         1 DB8         0.0000
     47  HAM      -45.7540  -14.6850   33.2130 H         1 DB8         0.0000
     48 HAMA      -47.4400  -15.2090   33.5540 H         1 DB8         0.0000
     49  HAN      -46.8610  -15.2600   36.0200 H         1 DB8         0.0000
     50 HANA      -45.2540  -14.5890   35.6210 H         1 DB8         0.0000
     51  HAO      -50.0590  -20.3110   31.0130 H         1 DB8         0.0000
     52 HAOA      -49.5100  -21.5250   32.2170 H         1 DB8         0.0000
     53 HAOB      -50.5510  -20.1550   32.7330 H         1 DB8         0.0000
     54  HAP      -46.0410  -19.3210   33.4240 H         1 DB8         0.0000
     55 HAPA      -46.6990  -19.0290   35.0830 H         1 DB8         0.0000
     56  HAQ      -46.7260  -17.7080   31.6400 H         1 DB8         0.0000
     57 HAQA      -47.7940  -16.3450   32.1210 H         1 DB8         0.0000
     58  HAR      -47.8150  -20.8820   33.8280 H         1 DB8         0.0000
     59 HARA      -48.9220  -19.5580   34.3610 H         1 DB8         0.0000
     60  HAS      -49.5610  -17.9110   32.7250 H         1 DB8         0.0000
     61 HASA      -49.0370  -18.1530   31.0060 H         1 DB8         0.0000
     62 HNAU      -42.3810   -8.6920   33.7080 H         1 DB8         0.0000
     63  H01      -39.0630   -2.1270   34.8030 H         1 DB8         0.0000
     64 H01A      -38.7060   -3.7480   34.1160 H         1 DB8         0.0000
     65 H01B      -39.4290   -2.4710   33.0790 H         1 DB8         0.0000
@<TRIPOS>BOND
     1    1   22 1
     2    1   37 1
     3    1   38 1
     4    1   39 1
     5    3   40 1
     6    3   41 1
     7    5   25 1
     8    6   26 1
     9    4    7 3
    10    8   42 1
    11    9   26 ar
    12    9   25 ar
    13    9   43 1
    14   10   44 1
    15   11   32 ar
    16   11   45 1
    17   12   33 ar
    18   12   46 1
    19    3   13 1
    20   13   14 1
    21   13   47 1
    22   13   48 1
    23   14   49 1
    24   14   50 1
    25   15   35 1
    26   15   51 1
    27   15   52 1
    28   15   53 1
    29   16   54 1
    30   16   55 1
    31   17   34 1
    32   17   56 1
    33   17   57 1
    34   16   18 1
    35   18   58 1
    36   18   59 1
    37   17   19 1
    38   19   35 1
    39   19   60 1
    40   19   61 1
    41    8   20 ar
    42   21   31 1
    43   21   62 1
    44   22   29 1
    45   14   23 1
    46   23   30 1
    47    2   24 1
    48   10   24 ar
    49   24   25 ar
    50   26   28 ar
    51    7   27 1
    52    8   27 ar
    53   10   28 ar
    54   21   28 1
    55   12   29 ar
    56   29   30 ar
    57   11   30 ar
    58   27   31 ar
    59   20   32 ar
    60   31   33 ar
    61   32   33 ar
    62    3   34 1
    63   16   34 1
    64   18   35 1
    65    2   36 1
    66   36   63 1
    67   36   64 1
    68   36   65 1
@<TRIPOS>SUBSTRUCTURE
     1 DB8         1 GROUP 0 A     ****
