@<TRIPOS>MOLECULE
NIL
   61    65     1     0     0
SMALL
NO_CHARGES

@<TRIPOS>ATOM
      1  O17       27.4370    2.8950   51.2430 O.2       1 NIL         0.0000
      2  C16       27.1160    2.6680   52.3840 C.2       1 NIL         0.0000
      3  N14       26.0130    3.0980   53.0150 N.am      1 NIL         0.0000
      4  C11       25.1140    4.0420   52.5350 C.ar      1 NIL         0.0000
      5  C9        24.3180    4.8060   53.4240 C.ar      1 NIL         0.0000
      6  C8        23.4180    5.7650   52.9510 C.ar      1 NIL         0.0000
      7  N51       22.6560    6.5560   53.8240 N.pl3     1 NIL         0.0000
      8  C56       22.3140    6.3130   55.1530 C.ar      1 NIL         0.0000
      9  C55       21.4970    7.3060   55.5670 C.ar      1 NIL         0.0000
     10  C58       20.8800    7.4930   56.9320 C.3       1 NIL         0.0000
     11  N54       21.3460    8.1740   54.5420 N.ar      1 NIL         0.0000
     12  C52       22.0110    7.6890   53.5220 C.ar      1 NIL         0.0000
     13  C6        23.2420    5.9220   51.5800 C.ar      1 NIL         0.0000
     14  C12       24.8860    4.1760   51.1480 C.ar      1 NIL         0.0000
     15  C5        23.9850    5.1690   50.6680 C.ar      1 NIL         0.0000
     16  C2        23.8080    5.3300   49.1930 C.3       1 NIL         0.0000
     17  F4        23.7250    4.1770   48.5000 F         1 NIL         0.0000
     18  F3        22.6440    5.9040   48.9120 F         1 NIL         0.0000
     19  F1        24.8490    5.9670   48.6180 F         1 NIL         0.0000
     20  C18       27.8680    1.5870   53.0510 C.ar      1 NIL         0.0000
     21  C25       27.5140    1.0020   54.2760 C.ar      1 NIL         0.0000
     22  C23       28.2050   -0.1000   54.7820 C.ar      1 NIL         0.0000
     23  C22       29.2140   -0.7110   54.0550 C.ar      1 NIL         0.0000
     24  C27       29.9540   -1.9170   54.6160 C.3       1 NIL         0.0000
     25  C21       29.5010   -0.1980   52.7910 C.ar      1 NIL         0.0000
     26  C19       28.8130    0.9240   52.3120 C.ar      1 NIL         0.0000
     27  N31       30.6200   -0.6930   52.1090 N.pl3     1 NIL         0.0000
     28  C33       31.8450   -0.0340   52.2300 C.ar      1 NIL         0.0000
     29  N40       32.1570    1.0110   52.9860 N.ar      1 NIL         0.0000
     30  C38       33.4140    1.4820   52.8790 C.ar      1 NIL         0.0000
     31  C36       34.3070    0.9710   52.0170 C.ar      1 NIL         0.0000
     32  C35       33.9360   -0.0810   51.2560 C.ar      1 NIL         0.0000
     33  N34       32.7080   -0.6040   51.3500 N.ar      1 NIL         0.0000
     34  C41       34.8530   -0.7620   50.3050 C.ar      1 NIL         0.0000
     35  C49       36.1840   -0.3460   50.1410 C.ar      1 NIL         0.0000
     36  C47       36.9880   -1.0040   49.2190 C.ar      1 NIL         0.0000
     37  C45       36.4440   -2.0750   48.5110 C.ar      1 NIL         0.0000
     38  N44       35.1680   -2.4770   48.6290 N.ar      1 NIL         0.0000
     39  C42       34.4000   -1.8440   49.5250 C.ar      1 NIL         0.0000
     40 HN14       25.8200    2.7030   53.9130 H         1 NIL         0.0000
     41  H9        24.4090    4.6440   54.4880 H         1 NIL         0.0000
     42  H56       22.6450    5.4750   55.7490 H         1 NIL         0.0000
     43  H58       21.6750    7.5380   57.6910 H         1 NIL         0.0000
     44 H58A       20.3030    8.4300   56.9480 H         1 NIL         0.0000
     45 H58B       20.2120    6.6470   57.1510 H         1 NIL         0.0000
     46  H52       22.0360    8.1520   52.5470 H         1 NIL         0.0000
     47  H6        22.5200    6.6370   51.2150 H         1 NIL         0.0000
     48  H12       25.3950    3.5260   50.4520 H         1 NIL         0.0000
     49  H25       26.6890    1.4130   54.8390 H         1 NIL         0.0000
     50  H23       27.9480   -0.4840   55.7580 H         1 NIL         0.0000
     51  H27       30.1330   -2.6450   53.8110 H         1 NIL         0.0000
     52 H27A       30.9170   -1.5930   55.0370 H         1 NIL         0.0000
     53 H27B       29.3470   -2.3850   55.4050 H         1 NIL         0.0000
     54  H19       29.0370    1.2820   51.3180 H         1 NIL         0.0000
     55 HN31       30.5420   -1.5120   51.5400 H         1 NIL         0.0000
     56  H38       33.7160    2.3040   53.5120 H         1 NIL         0.0000
     57  H36       35.2980    1.3910   51.9340 H         1 NIL         0.0000
     58  H49       36.5770    0.4740   50.7240 H         1 NIL         0.0000
     59  H47       38.0090   -0.6940   49.0550 H         1 NIL         0.0000
     60  H45       37.0860   -2.6120   47.8280 H         1 NIL         0.0000
     61  H42       33.3820   -2.1800   49.6560 H         1 NIL         0.0000
@<TRIPOS>BOND
     1    1    2 
     2    2    3 
     3    2   20 
     4    3    4 
     5    3   40 
     6    4    5 
     7    4   14 
     8    5    6 
     9    5   41 
    10    6    7 
    11    6   13 
    12    7    8 
    13    7   12 
    14    8    9 
    15    8   42 
    16    9   10 
    17    9   11 
    18   10   43 
    19   10   44 
    20   10   45 
    21   11   12 
    22   12   46 
    23   13   15 
    24   13   47 
    25   14   15 
    26   14   48 
    27   15   16 
    28   16   17 
    29   16   18 
    30   16   19 
    31   20   21 
    32   20   26 
    33   21   22 
    34   21   49 
    35   22   23 
    36   22   50 
    37   23   24 
    38   23   25 
    39   24   51 
    40   24   52 
    41   24   53 
    42   25   26 
    43   25   27 
    44   26   54 
    45   27   28 
    46   27   55 
    47   28   29 
    48   28   33 
    49   29   30 
    50   30   31 
    51   30   56 
    52   31   32 
    53   31   57 
    54   32   33 
    55   32   34 
    56   34   35 
    57   34   39 
    58   35   36 
    59   35   58 
    60   36   37 
    61   36   59 
    62   37   38 
    63   37   60 
    64   38   39 
    65   39   61 
@<TRIPOS>SUBSTRUCTURE
     1 NIL         1 GROUP 0 A     ****
