BAX
                    3D
 Structure written by MMmdl.
 48 50  0  0  1  0            999 V2000
   97.4390   32.6310   64.4430 C   0  0  0  0  0  0
   98.5430   32.6540   65.2530 C   0  0  0  0  0  0
   99.8240   32.8580   64.7400 C   0  0  0  0  0  0
   99.9800   33.0320   63.3840 C   0  0  0  0  0  0
   97.6190   31.4940   67.6390 C   0  0  0  0  0  0
   96.9410   30.6670   70.0600 C   0  0  0  0  0  0
   96.7630   31.0330   71.4700 C   0  0  0  0  0  0
   96.1330   30.1310   72.3250 C   0  0  0  0  0  0
   95.6740   28.9120   71.8440 C   0  0  0  0  0  0
   95.8410   28.5680   70.5010 C   0  0  0  0  0  0
   96.4710   29.4310   69.6120 C   0  0  0  0  0  0
   95.0620   28.0390   72.7080 O   0  0  0  0  0  0
   92.6430   28.7190   72.0820 C   0  0  0  0  0  0
   91.3230   28.2700   72.0590 C   0  0  0  0  0  0
   92.0960   26.0980   73.0070 C   0  0  0  0  0  0
   93.3500   26.5660   73.0110 C   0  0  0  0  0  0
   90.8040   23.7300   73.1400 N   0  0  0  0  0  0
   89.8590   23.5480   74.2000 C   0  0  0  0  0  0
   98.8590   33.0100   62.5450 C   0  0  0  0  0  0
   97.5340   32.7970   63.0920 C   0  0  0  0  0  0
   96.3730   32.7550   62.3340 C   0  0  0  0  0  0
   96.1820   33.9020   61.6910 F   0  0  0  0  0  0
   96.4840   31.7570   61.4570 F   0  0  0  0  0  0
   95.2670   32.5160   63.0470 F   0  0  0  0  0  0
   99.1700   33.2420   60.7940 Cl  0  0  0  0  0  0
   98.2940   32.4470   66.6210 N   0  0  0  0  0  0
   97.6960   31.6230   69.0510 N   0  0  0  0  0  0
   96.6860   30.9070   67.1450 O   0  0  0  0  0  0
   93.6740   27.7950   72.5920 C   0  0  0  0  0  0
   91.0430   26.9170   72.5320 N   0  0  0  0  0  0
   91.9130   24.6340   73.5250 C   0  0  0  0  0  0
   92.9960   23.9820   73.7350 O   0  0  0  0  0  0
   96.4450   32.4740   64.8950 H   0  0  0  0  0  0
  100.6990   32.8800   65.4110 H   0  0  0  0  0  0
  100.9860   33.1880   62.9590 H   0  0  0  0  0  0
   97.1220   32.0060   71.8470 H   0  0  0  0  0  0
   95.9980   30.3870   73.3900 H   0  0  0  0  0  0
   95.4670   27.5950   70.1400 H   0  0  0  0  0  0
   96.5990   29.1400   68.5560 H   0  0  0  0  0  0
   92.9070   29.7310   71.7310 H   0  0  0  0  0  0
   90.5110   28.9200   71.6930 H   0  0  0  0  0  0
   94.1550   25.9070   73.3770 H   0  0  0  0  0  0
   90.6541   23.2214   72.1762 H   0  0  0  0  0  0
   89.0586   22.8716   73.8655 H   0  0  0  0  0  0
   89.4256   24.5207   74.4759 H   0  0  0  0  0  0
   90.3667   23.1119   75.0730 H   0  0  0  0  0  0
   98.6690   33.1669   67.3634 H   0  0  0  0  0  0
   98.3061   32.4218   69.4979 H   0  0  0  0  0  0
  1  2  2  0  0  0
  1 20  1  0  0  0
  1 33  1  0  0  0
  2  3  1  0  0  0
  2 26  1  0  0  0
  3  4  2  0  0  0
  3 34  1  0  0  0
  4 19  1  0  0  0
  4 35  1  0  0  0
  5 26  1  0  0  0
  5 27  1  0  0  0
  5 28  2  0  0  0
  6  7  2  0  0  0
  6 11  1  0  0  0
  6 27  1  0  0  0
  7  8  1  0  0  0
  7 36  1  0  0  0
  8  9  2  0  0  0
  8 37  1  0  0  0
  9 10  1  0  0  0
  9 12  1  0  0  0
 10 11  2  0  0  0
 10 38  1  0  0  0
 11 39  1  0  0  0
 12 29  1  0  0  0
 13 14  2  0  0  0
 13 29  1  0  0  0
 13 40  1  0  0  0
 14 30  1  0  0  0
 14 41  1  0  0  0
 15 16  1  0  0  0
 15 30  2  0  0  0
 15 31  1  0  0  0
 16 29  2  0  0  0
 16 42  1  0  0  0
 17 18  1  0  0  0
 17 31  1  0  0  0
 17 43  1  0  0  0
 18 44  1  0  0  0
 18 45  1  0  0  0
 18 46  1  0  0  0
 19 20  2  0  0  0
 19 25  1  0  0  0
 20 21  1  0  0  0
 21 22  1  0  0  0
 21 23  1  0  0  0
 21 24  1  0  0  0
 26 47  1  0  0  0
 27 48  1  0  0  0
 31 32  2  0  0  0
M  END
> <s_m_source_file>
C:\GitHub\mcce-charges\epik_inhibitors\output-new\Sorafenib\Sorafenib-input.mol2

> <i_m_source_file_index>
1

> <r_lp_tautomer_probability>
1

> <r_epik_Ionization_Penalty>
  0.0062

> <r_epik_Ionization_Penalty_Charging>
  0.0000

> <r_epik_Ionization_Penalty_Neutral>
  0.0062

> <r_epik_State_Penalty>
  0.0047

> <r_epik_Charging_Adjusted_Penalty>
0.00472078685885348

> <i_epik_Tot_Q>
0

> <i_epik_Tot_abs_Q>
0

$$$$
BAX
                    3D
 Structure written by MMmdl.
 49 51  0  0  1  0            999 V2000
   97.4390   32.6310   64.4430 C   0  0  0  0  0  0
   98.5430   32.6540   65.2530 C   0  0  0  0  0  0
   99.8240   32.8580   64.7400 C   0  0  0  0  0  0
   99.9800   33.0320   63.3840 C   0  0  0  0  0  0
   97.6190   31.4940   67.6390 C   0  0  0  0  0  0
   96.9410   30.6670   70.0600 C   0  0  0  0  0  0
   96.7630   31.0330   71.4700 C   0  0  0  0  0  0
   96.1330   30.1310   72.3250 C   0  0  0  0  0  0
   95.6740   28.9120   71.8440 C   0  0  0  0  0  0
   95.8410   28.5680   70.5010 C   0  0  0  0  0  0
   96.4710   29.4310   69.6120 C   0  0  0  0  0  0
   95.0620   28.0390   72.7080 O   0  0  0  0  0  0
   92.6430   28.7190   72.0820 C   0  0  0  0  0  0
   91.3230   28.2700   72.0590 C   0  0  0  0  0  0
   92.0960   26.0980   73.0070 C   0  0  0  0  0  0
   93.3500   26.5660   73.0110 C   0  0  0  0  0  0
   90.8040   23.7300   73.1400 N   0  0  0  0  0  0
   89.8590   23.5480   74.2000 C   0  0  0  0  0  0
   98.8590   33.0100   62.5450 C   0  0  0  0  0  0
   97.5340   32.7970   63.0920 C   0  0  0  0  0  0
   96.3730   32.7550   62.3340 C   0  0  0  0  0  0
   96.1820   33.9020   61.6910 F   0  0  0  0  0  0
   96.4840   31.7570   61.4570 F   0  0  0  0  0  0
   95.2670   32.5160   63.0470 F   0  0  0  0  0  0
   99.1700   33.2420   60.7940 Cl  0  0  0  0  0  0
   98.2940   32.4470   66.6210 N   0  0  0  0  0  0
   97.6960   31.6230   69.0510 N   0  0  0  0  0  0
   96.6860   30.9070   67.1450 O   0  0  0  0  0  0
   93.6740   27.7950   72.5920 C   0  0  0  0  0  0
   91.0430   26.9170   72.5320 N   0  3  0  0  0  0
   91.9130   24.6340   73.5250 C   0  0  0  0  0  0
   92.9960   23.9820   73.7350 O   0  0  0  0  0  0
   96.4450   32.4740   64.8950 H   0  0  0  0  0  0
  100.6990   32.8800   65.4110 H   0  0  0  0  0  0
  100.9860   33.1880   62.9590 H   0  0  0  0  0  0
   97.1220   32.0060   71.8470 H   0  0  0  0  0  0
   95.9980   30.3870   73.3900 H   0  0  0  0  0  0
   95.4670   27.5950   70.1400 H   0  0  0  0  0  0
   96.5990   29.1400   68.5560 H   0  0  0  0  0  0
   92.9070   29.7310   71.7310 H   0  0  0  0  0  0
   90.5110   28.9200   71.6930 H   0  0  0  0  0  0
   94.1550   25.9070   73.3770 H   0  0  0  0  0  0
   90.6541   23.2214   72.1762 H   0  0  0  0  0  0
   89.0586   22.8716   73.8655 H   0  0  0  0  0  0
   89.4256   24.5207   74.4759 H   0  0  0  0  0  0
   90.3667   23.1119   75.0730 H   0  0  0  0  0  0
   98.6690   33.1669   67.3634 H   0  0  0  0  0  0
   98.3061   32.4218   69.4979 H   0  0  0  0  0  0
   90.0125   26.5323   72.5197 H   0  0  0  0  0  0
  1  2  2  0  0  0
  1 20  1  0  0  0
  1 33  1  0  0  0
  2  3  1  0  0  0
  2 26  1  0  0  0
  3  4  2  0  0  0
  3 34  1  0  0  0
  4 19  1  0  0  0
  4 35  1  0  0  0
  5 26  1  0  0  0
  5 27  1  0  0  0
  5 28  2  0  0  0
  6  7  2  0  0  0
  6 11  1  0  0  0
  6 27  1  0  0  0
  7  8  1  0  0  0
  7 36  1  0  0  0
  8  9  2  0  0  0
  8 37  1  0  0  0
  9 10  1  0  0  0
  9 12  1  0  0  0
 10 11  2  0  0  0
 10 38  1  0  0  0
 11 39  1  0  0  0
 12 29  1  0  0  0
 13 14  2  0  0  0
 13 29  1  0  0  0
 13 40  1  0  0  0
 14 30  1  0  0  0
 14 41  1  0  0  0
 15 16  1  0  0  0
 15 30  2  0  0  0
 15 31  1  0  0  0
 16 29  2  0  0  0
 16 42  1  0  0  0
 17 18  1  0  0  0
 17 31  1  0  0  0
 17 43  1  0  0  0
 18 44  1  0  0  0
 18 45  1  0  0  0
 18 46  1  0  0  0
 19 20  2  0  0  0
 19 25  1  0  0  0
 20 21  1  0  0  0
 21 22  1  0  0  0
 21 23  1  0  0  0
 21 24  1  0  0  0
 26 47  1  0  0  0
 27 48  1  0  0  0
 30 49  1  0  0  0
 31 32  2  0  0  0
M  CHG  1  30   1
M  END
> <s_m_source_file>
C:\GitHub\mcce-charges\epik_inhibitors\output-new\Sorafenib\Sorafenib-input.mol2

> <i_m_source_file_index>
1

> <r_lp_tautomer_probability>
1

> <r_epik_Ionization_Penalty>
  2.7369

> <r_epik_Ionization_Penalty_Charging>
  2.7087

> <r_epik_Ionization_Penalty_Neutral>
  0.0282

> <r_epik_State_Penalty>
  2.8886

> <r_epik_Charging_Adjusted_Penalty>
5.59732237823935

> <i_epik_Tot_Q>
1

> <i_epik_Tot_abs_Q>
1

$$$$
BAX
                    3D
 Structure written by MMmdl.
 48 50  0  0  1  0            999 V2000
   97.4390   32.6310   64.4430 C   0  0  0  0  0  0
   98.5430   32.6540   65.2530 C   0  0  0  0  0  0
   99.8240   32.8580   64.7400 C   0  0  0  0  0  0
   99.9800   33.0320   63.3840 C   0  0  0  0  0  0
   97.6190   31.4940   67.6390 C   0  0  0  0  0  0
   96.9410   30.6670   70.0600 C   0  0  0  0  0  0
   96.7630   31.0330   71.4700 C   0  0  0  0  0  0
   96.1330   30.1310   72.3250 C   0  0  0  0  0  0
   95.6740   28.9120   71.8440 C   0  0  0  0  0  0
   95.8410   28.5680   70.5010 C   0  0  0  0  0  0
   96.4710   29.4310   69.6120 C   0  0  0  0  0  0
   95.0620   28.0390   72.7080 O   0  0  0  0  0  0
   92.6430   28.7190   72.0820 C   0  0  0  0  0  0
   91.3230   28.2700   72.0590 C   0  0  0  0  0  0
   92.0960   26.0980   73.0070 C   0  0  0  0  0  0
   93.3500   26.5660   73.0110 C   0  0  0  0  0  0
   90.8040   23.7300   73.1400 N   0  0  0  0  0  0
   89.8590   23.5480   74.2000 C   0  0  0  0  0  0
   98.8590   33.0100   62.5450 C   0  0  0  0  0  0
   97.5340   32.7970   63.0920 C   0  0  0  0  0  0
   96.3730   32.7550   62.3340 C   0  0  0  0  0  0
   96.1820   33.9020   61.6910 F   0  0  0  0  0  0
   96.4840   31.7570   61.4570 F   0  0  0  0  0  0
   95.2670   32.5160   63.0470 F   0  0  0  0  0  0
   99.1700   33.2420   60.7940 Cl  0  0  0  0  0  0
   98.2940   32.4470   66.6210 N   0  0  0  0  0  0
   97.6960   31.6230   69.0510 N   0  0  0  0  0  0
   96.6860   30.9070   67.1450 O   0  0  0  0  0  0
   93.6740   27.7950   72.5920 C   0  0  0  0  0  0
   91.0430   26.9170   72.5320 N   0  3  0  0  0  0
   91.9130   24.6340   73.5250 C   0  0  0  0  0  0
   92.9960   23.9820   73.7350 O   0  5  0  0  0  0
   96.4450   32.4740   64.8950 H   0  0  0  0  0  0
  100.6990   32.8800   65.4110 H   0  0  0  0  0  0
  100.9860   33.1880   62.9590 H   0  0  0  0  0  0
   97.1220   32.0060   71.8470 H   0  0  0  0  0  0
   95.9980   30.3870   73.3900 H   0  0  0  0  0  0
   95.4670   27.5950   70.1400 H   0  0  0  0  0  0
   96.5990   29.1400   68.5560 H   0  0  0  0  0  0
   92.9070   29.7310   71.7310 H   0  0  0  0  0  0
   90.5110   28.9200   71.6930 H   0  0  0  0  0  0
   94.1550   25.9070   73.3770 H   0  0  0  0  0  0
   89.0586   22.8716   73.8655 H   0  0  0  0  0  0
   89.4256   24.5207   74.4759 H   0  0  0  0  0  0
   90.3667   23.1119   75.0730 H   0  0  0  0  0  0
   98.6690   33.1669   67.3634 H   0  0  0  0  0  0
   98.3061   32.4218   69.4979 H   0  0  0  0  0  0
   90.0125   26.5323   72.5197 H   0  0  0  0  0  0
  1  2  2  0  0  0
  1 20  1  0  0  0
  1 33  1  0  0  0
  2  3  1  0  0  0
  2 26  1  0  0  0
  3  4  2  0  0  0
  3 34  1  0  0  0
  4 19  1  0  0  0
  4 35  1  0  0  0
  5 26  1  0  0  0
  5 27  1  0  0  0
  5 28  2  0  0  0
  6  7  2  0  0  0
  6 11  1  0  0  0
  6 27  1  0  0  0
  7  8  1  0  0  0
  7 36  1  0  0  0
  8  9  2  0  0  0
  8 37  1  0  0  0
  9 10  1  0  0  0
  9 12  1  0  0  0
 10 11  2  0  0  0
 10 38  1  0  0  0
 11 39  1  0  0  0
 12 29  1  0  0  0
 13 14  2  0  0  0
 13 29  1  0  0  0
 13 40  1  0  0  0
 14 30  1  0  0  0
 14 41  1  0  0  0
 15 16  1  0  0  0
 15 30  2  0  0  0
 15 31  1  0  0  0
 16 29  2  0  0  0
 16 42  1  0  0  0
 17 18  1  0  0  0
 17 31  2  0  0  0
 18 43  1  0  0  0
 18 44  1  0  0  0
 18 45  1  0  0  0
 19 20  2  0  0  0
 19 25  1  0  0  0
 20 21  1  0  0  0
 21 22  1  0  0  0
 21 23  1  0  0  0
 21 24  1  0  0  0
 26 46  1  0  0  0
 27 47  1  0  0  0
 30 48  1  0  0  0
 31 32  1  0  0  0
M  CHG  2  30   1  32  -1
M  END
> <s_m_source_file>
C:\GitHub\mcce-charges\epik_inhibitors\output-new\Sorafenib\Sorafenib-input.mol2

> <i_m_source_file_index>
1

> <r_epik_Ionization_Penalty>
  1.8389

> <r_epik_Ionization_Penalty_Charging>
  1.8389

> <r_epik_Ionization_Penalty_Neutral>
  0.0000

> <r_epik_State_Penalty>
  4.7985

> <r_epik_Charging_Adjusted_Penalty>
6.63745732577581

> <i_epik_Tot_Q>
0

> <i_epik_Tot_abs_Q>
2

$$$$
