@<TRIPOS>MOLECULE
0LI
   66    70     0     0     0
SMALL
NO_CHARGES

@<TRIPOS>ATOM
      1 N1          4.0940   -7.3400   13.8920 N.2       1 PON         0.0000
      2 N2          7.3430    7.8250   19.1290 N.3       1 PON         0.0000
      3 C1          3.1100   -2.6620   13.9140 C.1       1 PON         0.0000
      4 C2          3.1240   -1.2170   13.7480 C.ar      1 PON         0.0000
      5 C3          2.5150   -0.5470   12.6130 C.ar      1 PON         0.0000
      6 C4          2.5760    0.8700   12.5170 C.ar      1 PON         0.0000
      7 C5          3.2490    1.6490   13.5520 C.ar      1 PON         0.0000
      8 C6          3.7770   -0.4670   14.7510 C.ar      1 PON         0.0000
      9 C7          5.5040    3.8890   16.4060 C.ar      1 PON         0.0000
     10 C8          6.1490    6.1890   17.0020 C.ar      1 PON         0.0000
     11 C9          7.4820    4.2910   17.8860 C.ar      1 PON         0.0000
     12 C10         8.1140    6.7760   18.4920 C.3       1 PON         0.0000
     13 C11         6.4850    7.3580   20.2450 C.3       1 PON         0.0000
     14 C12         5.5980    8.5190   20.7600 C.3       1 PON         0.0000
     15 C13         8.2360    8.9130   19.6140 C.3       1 PON         0.0000
     16 C14         2.3350   -8.4230   15.3470 C.2       1 PON         0.0000
     17 C15         1.2170   -8.1070   16.1180 C.2       1 PON         0.0000
     18 C16         0.7960   -6.7380   16.2130 C.2       1 PON         0.0000
     19 N3          1.3920   -5.6970   15.6110 N.2       1 PON         0.0000
     20 N4          2.4830   -6.0660   14.8670 N.pl3     1 PON         0.0000
     21 C17         3.0240   -7.3780   14.6770 C.2       1 PON         0.0000
     22 C18         4.2660   -6.0040   13.5630 C.2       1 PON         0.0000
     23 C19         3.2980   -5.2450   14.1440 C.2       1 PON         0.0000
     24 C20         3.1690   -3.8560   14.0260 C.1       1 PON         0.0000
     25 C21         3.8540    0.9630   14.6800 C.ar      1 PON         0.0000
     26 C22         1.8080   -1.3360   11.5010 C.3       1 PON         0.0000
     27 C23         4.5610    1.6710   15.7780 C.2       1 PON         0.0000
     28 O1          5.0700    1.0130   16.6930 O.2       1 PON         0.0000
     29 N5          4.5990    3.0330   15.7040 N.am      1 PON         0.0000
     30 C24         5.2890    5.2810   16.3210 C.ar      1 PON         0.0000
     31 C25         7.2430    5.7250   17.7850 C.ar      1 PON         0.0000
     32 C26         6.6020    3.4000   17.1890 C.ar      1 PON         0.0000
     33 C27         8.6220    3.7010   18.7020 C.3       1 PON         0.0000
     34 F1          8.4210    3.9530   19.9860 F         1 PON         0.0000
     35 F2          8.7050    2.3810   18.5780 F         1 PON         0.0000
     36 F3          9.7940    4.2350   18.2910 F         1 PON         0.0000
     37 C28         7.3820   10.1000   20.1030 C.3       1 PON         0.0000
     38 C29         5.5690   10.8090   21.5780 C.3       1 PON         0.0000
     39 N6          6.4220    9.6880   21.1710 N.3       1 PON         0.0000
     40 H1          2.1230    1.3720   11.6750 H         1 PON         0.0000
     41 H2          3.2970    2.7260   13.4800 H         1 PON         0.0000
     42 H3          4.2270   -0.9810   15.5880 H         1 PON         0.0000
     43 H4          5.9670    7.2510   16.9230 H         1 PON         0.0000
     44 H5          8.7800    7.2360   17.7470 H         1 PON         0.0000
     45 H6          8.7170    6.2700   19.2600 H         1 PON         0.0000
     46 H7          5.8420    6.5390   19.8910 H         1 PON         0.0000
     47 H8          7.1220    6.9960   21.0660 H         1 PON         0.0000
     48 H9          4.9120    8.8290   19.9580 H         1 PON         0.0000
     49 H10         5.0160    8.1690   21.6250 H         1 PON         0.0000
     50 H11         8.8530    8.5380   20.4440 H         1 PON         0.0000
     51 H12         8.8890    9.2450   18.7930 H         1 PON         0.0000
     52 H13         2.6710   -9.4460   15.2610 H         1 PON         0.0000
     53 H14         0.6740   -8.8830   16.6370 H         1 PON         0.0000
     54 H15        -0.0730   -6.5280   16.8190 H         1 PON         0.0000
     55 H16         5.0560   -5.6200   12.9350 H         1 PON         0.0000
     56 H17         0.7440   -1.4540   11.7540 H         1 PON         0.0000
     57 H18         1.9010   -0.7920   10.5500 H         1 PON         0.0000
     58 H19         2.2730   -2.3280   11.4030 H         1 PON         0.0000
     59 H20         3.9320    3.4730   15.1030 H         1 PON         0.0000
     60 H21         4.4650    5.6610   15.7350 H         1 PON         0.0000
     61 H22         6.7700    2.3350   17.2550 H         1 PON         0.0000
     62 H23         8.0490   10.8780   20.5040 H         1 PON         0.0000
     63 H24         6.8160   10.5060   19.2520 H         1 PON         0.0000
     64 H25         6.1990   11.6600   21.8770 H         1 PON         0.0000
     65 H26         4.9270   11.1060   20.7350 H         1 PON         0.0000
     66 H27         4.9410   10.5020   22.4270 H         1 PON         0.0000
@<TRIPOS>BOND
     1    1   21 2
     2    1   22 1
     3    2   12 1
     4    2   13 1
     5    2   15 1
     6    3    4 1
     7    3   24 3
     8    4    5 ar
     9    4    8 ar
    10    5    6 ar
    11    5   26 1
    12    6    7 ar
    13    6   40 1
    14    7   25 ar
    15    7   41 1
    16    8   25 ar
    17    8   42 1
    18    9   29 1
    19    9   30 ar
    20    9   32 ar
    21   10   30 ar
    22   10   31 ar
    23   10   43 1
    24   11   31 ar
    25   11   32 ar
    26   11   33 1
    27   12   31 1
    28   12   44 1
    29   12   45 1
    30   13   14 1
    31   13   46 1
    32   13   47 1
    33   14   39 1
    34   14   48 1
    35   14   49 1
    36   15   37 1
    37   15   50 1
    38   15   51 1
    39   16   17 2
    40   16   21 1
    41   16   52 1
    42   17   18 1
    43   17   53 1
    44   18   19 2
    45   18   54 1
    46   19   20 1
    47   20   21 1
    48   20   23 1
    49   22   23 2
    50   22   55 1
    51   23   24 1
    52   25   27 1
    53   26   56 1
    54   26   57 1
    55   26   58 1
    56   27   28 2
    57   27   29 am
    58   29   59 1
    59   30   60 1
    60   32   61 1
    61   33   34 1
    62   33   35 1
    63   33   36 1
    64   37   39 1
    65   37   62 1
    66   37   63 1
    67   38   39 1
    68   38   64 1
    69   38   65 1
    70   38   66 1
