0LI
  CCTOOLS-0424161053

 66 70  0  0  0  0  0  0  0  0999 V2000
    4.0940   -7.3400   13.8920 N   0  0  0  0  0
    7.3430    7.8250   19.1290 N   0  0  0  0  0
    3.1100   -2.6620   13.9140 C   0  0  0  0  0
    3.1240   -1.2170   13.7480 C   0  0  0  0  0
    2.5150   -0.5470   12.6130 C   0  0  0  0  0
    2.5760    0.8700   12.5170 C   0  0  0  0  0
    3.2490    1.6490   13.5520 C   0  0  0  0  0
    3.7770   -0.4670   14.7510 C   0  0  0  0  0
    5.5040    3.8890   16.4060 C   0  0  0  0  0
    6.1490    6.1890   17.0020 C   0  0  0  0  0
    7.4820    4.2910   17.8860 C   0  0  0  0  0
    8.1140    6.7760   18.4920 C   0  0  0  0  0
    6.4850    7.3580   20.2450 C   0  0  0  0  0
    5.5980    8.5190   20.7600 C   0  0  0  0  0
    8.2360    8.9130   19.6140 C   0  0  0  0  0
    2.3350   -8.4230   15.3470 C   0  0  0  0  0
    1.2170   -8.1070   16.1180 C   0  0  0  0  0
    0.7960   -6.7380   16.2130 C   0  0  0  0  0
    1.3920   -5.6970   15.6110 N   0  0  0  0  0
    2.4830   -6.0660   14.8670 N   0  0  0  0  0
    3.0240   -7.3780   14.6770 C   0  0  0  0  0
    4.2660   -6.0040   13.5630 C   0  0  0  0  0
    3.2980   -5.2450   14.1440 C   0  0  0  0  0
    3.1690   -3.8560   14.0260 C   0  0  0  0  0
    3.8540    0.9630   14.6800 C   0  0  0  0  0
    1.8080   -1.3360   11.5010 C   0  0  0  0  0
    4.5610    1.6710   15.7780 C   0  0  0  0  0
    5.0700    1.0130   16.6930 O   0  0  0  0  0
    4.5990    3.0330   15.7040 N   0  0  0  0  0
    5.2890    5.2810   16.3210 C   0  0  0  0  0
    7.2430    5.7250   17.7850 C   0  0  0  0  0
    6.6020    3.4000   17.1890 C   0  0  0  0  0
    8.6220    3.7010   18.7020 C   0  0  0  0  0
    8.4210    3.9530   19.9860 F   0  0  0  0  0
    8.7050    2.3810   18.5780 F   0  0  0  0  0
    9.7940    4.2350   18.2910 F   0  0  0  0  0
    7.3820   10.1000   20.1030 C   0  0  0  0  0
    5.5690   10.8090   21.5780 C   0  0  0  0  0
    6.4220    9.6880   21.1710 N   0  0  0  0  0
    2.1230    1.3720   11.6750 H   0  0  0  0  0
    3.2970    2.7260   13.4800 H   0  0  0  0  0
    4.2270   -0.9810   15.5880 H   0  0  0  0  0
    5.9670    7.2510   16.9230 H   0  0  0  0  0
    8.7800    7.2360   17.7470 H   0  0  0  0  0
    8.7170    6.2700   19.2600 H   0  0  0  0  0
    5.8420    6.5390   19.8910 H   0  0  0  0  0
    7.1220    6.9960   21.0660 H   0  0  0  0  0
    4.9120    8.8290   19.9580 H   0  0  0  0  0
    5.0160    8.1690   21.6250 H   0  0  0  0  0
    8.8530    8.5380   20.4440 H   0  0  0  0  0
    8.8890    9.2450   18.7930 H   0  0  0  0  0
    2.6710   -9.4460   15.2610 H   0  0  0  0  0
    0.6740   -8.8830   16.6370 H   0  0  0  0  0
   -0.0730   -6.5280   16.8190 H   0  0  0  0  0
    5.0560   -5.6200   12.9350 H   0  0  0  0  0
    0.7440   -1.4540   11.7540 H   0  0  0  0  0
    1.9010   -0.7920   10.5500 H   0  0  0  0  0
    2.2730   -2.3280   11.4030 H   0  0  0  0  0
    3.9320    3.4730   15.1030 H   0  0  0  0  0
    4.4650    5.6610   15.7350 H   0  0  0  0  0
    6.7700    2.3350   17.2550 H   0  0  0  0  0
    8.0490   10.8780   20.5040 H   0  0  0  0  0
    6.8160   10.5060   19.2520 H   0  0  0  0  0
    6.1990   11.6600   21.8770 H   0  0  0  0  0
    4.9270   11.1060   20.7350 H   0  0  0  0  0
    4.9410   10.5020   22.4270 H   0  0  0  0  0
  1 21  2  0  0  0
  1 22  1  0  0  0
  2 12  1  0  0  0
  2 13  1  0  0  0
  2 15  1  0  0  0
  3  4  1  0  0  0
  3 24  3  0  0  0
  4  5  2  0  0  0
  4  8  1  0  0  0
  5  6  1  0  0  0
  5 26  1  0  0  0
  6  7  2  0  0  0
  6 40  1  0  0  0
  7 25  1  0  0  0
  7 41  1  0  0  0
  8 25  2  0  0  0
  8 42  1  0  0  0
  9 29  1  0  0  0
  9 30  2  0  0  0
  9 32  1  0  0  0
 10 30  1  0  0  0
 10 31  2  0  0  0
 10 43  1  0  0  0
 11 31  1  0  0  0
 11 32  2  0  0  0
 11 33  1  0  0  0
 12 31  1  0  0  0
 12 44  1  0  0  0
 12 45  1  0  0  0
 13 14  1  0  0  0
 13 46  1  0  0  0
 13 47  1  0  0  0
 14 39  1  0  0  0
 14 48  1  0  0  0
 14 49  1  0  0  0
 15 37  1  0  0  0
 15 50  1  0  0  0
 15 51  1  0  0  0
 16 17  2  0  0  0
 16 21  1  0  0  0
 16 52  1  0  0  0
 17 18  1  0  0  0
 17 53  1  0  0  0
 18 19  2  0  0  0
 18 54  1  0  0  0
 19 20  1  0  0  0
 20 21  1  0  0  0
 20 23  1  0  0  0
 22 23  2  0  0  0
 22 55  1  0  0  0
 23 24  1  0  0  0
 25 27  1  0  0  0
 26 56  1  0  0  0
 26 57  1  0  0  0
 26 58  1  0  0  0
 27 28  2  0  0  0
 27 29  1  0  0  0
 29 59  1  0  0  0
 30 60  1  0  0  0
 32 61  1  0  0  0
 33 34  1  0  0  0
 33 35  1  0  0  0
 33 36  1  0  0  0
 37 39  1  0  0  0
 37 62  1  0  0  0
 37 63  1  0  0  0
 38 39  1  0  0  0
 38 64  1  0  0  0
 38 65  1  0  0  0
 38 66  1  0  0  0
M  END
$$$$
