0LI
                    3D
 Structure written by MMmdl.
 67 71  0  0  1  0            999 V2000
    4.0940   -7.3400   13.8920 N   0  0  0  0  0  0
    7.3430    7.8250   19.1290 N   0  3  0  0  0  0
    3.1100   -2.6620   13.9140 C   0  0  0  0  0  0
    3.1240   -1.2170   13.7480 C   0  0  0  0  0  0
    2.5150   -0.5470   12.6130 C   0  0  0  0  0  0
    2.5760    0.8700   12.5170 C   0  0  0  0  0  0
    3.2490    1.6490   13.5520 C   0  0  0  0  0  0
    3.7770   -0.4670   14.7510 C   0  0  0  0  0  0
    5.5040    3.8890   16.4060 C   0  0  0  0  0  0
    6.1490    6.1890   17.0020 C   0  0  0  0  0  0
    7.4820    4.2910   17.8860 C   0  0  0  0  0  0
    8.1140    6.7760   18.4920 C   0  0  0  0  0  0
    6.4850    7.3580   20.2450 C   0  0  0  0  0  0
    5.5980    8.5190   20.7600 C   0  0  0  0  0  0
    8.2360    8.9130   19.6140 C   0  0  0  0  0  0
    2.3350   -8.4230   15.3470 C   0  0  0  0  0  0
    1.2170   -8.1070   16.1180 C   0  0  0  0  0  0
    0.7960   -6.7380   16.2130 C   0  0  0  0  0  0
    1.3920   -5.6970   15.6110 N   0  0  0  0  0  0
    2.4830   -6.0660   14.8670 N   0  0  0  0  0  0
    3.0240   -7.3780   14.6770 C   0  0  0  0  0  0
    4.2660   -6.0040   13.5630 C   0  0  0  0  0  0
    3.2980   -5.2450   14.1440 C   0  0  0  0  0  0
    3.1690   -3.8560   14.0260 C   0  0  0  0  0  0
    3.8540    0.9630   14.6800 C   0  0  0  0  0  0
    1.8080   -1.3360   11.5010 C   0  0  0  0  0  0
    4.5610    1.6710   15.7780 C   0  0  0  0  0  0
    5.0700    1.0130   16.6930 O   0  0  0  0  0  0
    4.5990    3.0330   15.7040 N   0  0  0  0  0  0
    5.2890    5.2810   16.3210 C   0  0  0  0  0  0
    7.2430    5.7250   17.7850 C   0  0  0  0  0  0
    6.6020    3.4000   17.1890 C   0  0  0  0  0  0
    8.6220    3.7010   18.7020 C   0  0  0  0  0  0
    8.4210    3.9530   19.9860 F   0  0  0  0  0  0
    8.7050    2.3810   18.5780 F   0  0  0  0  0  0
    9.7940    4.2350   18.2910 F   0  0  0  0  0  0
    7.3820   10.1000   20.1030 C   0  0  0  0  0  0
    5.5690   10.8090   21.5780 C   0  0  0  0  0  0
    6.4220    9.6880   21.1710 N   0  0  0  0  0  0
    2.1230    1.3720   11.6750 H   0  0  0  0  0  0
    3.2970    2.7260   13.4800 H   0  0  0  0  0  0
    4.2270   -0.9810   15.5880 H   0  0  0  0  0  0
    5.9670    7.2510   16.9230 H   0  0  0  0  0  0
    8.7794    7.2178   17.7357 H   0  0  0  0  0  0
    8.7161    6.2522   19.2490 H   0  0  0  0  0  0
    5.8390    6.5401   19.8933 H   0  0  0  0  0  0
    7.1187    6.9966   21.0683 H   0  0  0  0  0  0
    4.9118    8.8381   19.9617 H   0  0  0  0  0  0
    5.0162    8.1783   21.6291 H   0  0  0  0  0  0
    8.8526    8.5385   20.4444 H   0  0  0  0  0  0
    8.8889    9.2448   18.7932 H   0  0  0  0  0  0
    2.6710   -9.4460   15.2610 H   0  0  0  0  0  0
    0.6740   -8.8830   16.6370 H   0  0  0  0  0  0
   -0.0730   -6.5280   16.8190 H   0  0  0  0  0  0
    5.0560   -5.6200   12.9350 H   0  0  0  0  0  0
    1.8517   -2.4111   11.7296 H   0  0  0  0  0  0
    2.3088   -1.1447   10.5405 H   0  0  0  0  0  0
    0.7572   -1.0172   11.4365 H   0  0  0  0  0  0
    3.8448    3.4647   15.0296 H   0  0  0  0  0  0
    4.4650    5.6610   15.7350 H   0  0  0  0  0  0
    6.7700    2.3350   17.2550 H   0  0  0  0  0  0
    8.0398   10.8811   20.5118 H   0  0  0  0  0  0
    6.8065   10.5096   19.2598 H   0  0  0  0  0  0
    4.8748   10.4752   22.3633 H   0  0  0  0  0  0
    4.9959   11.1676   20.7102 H   0  0  0  0  0  0
    6.1963   11.6251   21.9658 H   0  0  0  0  0  0
    6.6751    8.1797   18.3302 H   0  0  0  0  0  0
  1 21  2  0  0  0
  1 22  1  0  0  0
  2 12  1  0  0  0
  2 13  1  0  0  0
  2 15  1  0  0  0
  2 67  1  0  0  0
  3  4  1  0  0  0
  3 24  3  0  0  0
  4  5  2  0  0  0
  4  8  1  0  0  0
  5  6  1  0  0  0
  5 26  1  0  0  0
  6  7  2  0  0  0
  6 40  1  0  0  0
  7 25  1  0  0  0
  7 41  1  0  0  0
  8 25  2  0  0  0
  8 42  1  0  0  0
  9 29  1  0  0  0
  9 30  2  0  0  0
  9 32  1  0  0  0
 10 30  1  0  0  0
 10 31  2  0  0  0
 10 43  1  0  0  0
 11 31  1  0  0  0
 11 32  2  0  0  0
 11 33  1  0  0  0
 12 31  1  0  0  0
 12 44  1  0  0  0
 12 45  1  0  0  0
 13 14  1  0  0  0
 13 46  1  0  0  0
 13 47  1  0  0  0
 14 39  1  0  0  0
 14 48  1  0  0  0
 14 49  1  0  0  0
 15 37  1  0  0  0
 15 50  1  0  0  0
 15 51  1  0  0  0
 16 17  2  0  0  0
 16 21  1  0  0  0
 16 52  1  0  0  0
 17 18  1  0  0  0
 17 53  1  0  0  0
 18 19  2  0  0  0
 18 54  1  0  0  0
 19 20  1  0  0  0
 20 21  1  0  0  0
 20 23  1  0  0  0
 22 23  2  0  0  0
 22 55  1  0  0  0
 23 24  1  0  0  0
 25 27  1  0  0  0
 26 56  1  0  0  0
 26 57  1  0  0  0
 26 58  1  0  0  0
 27 28  2  0  0  0
 27 29  1  0  0  0
 29 59  1  0  0  0
 30 60  1  0  0  0
 32 61  1  0  0  0
 33 34  1  0  0  0
 33 35  1  0  0  0
 33 36  1  0  0  0
 37 39  1  0  0  0
 37 62  1  0  0  0
 37 63  1  0  0  0
 38 39  1  0  0  0
 38 64  1  0  0  0
 38 65  1  0  0  0
 38 66  1  0  0  0
M  CHG  1   2   1
M  END
> <s_m_source_file>
C:\GitHub\mcce-charges\epik_inhibitors\output-new\Ponatinib\Ponatinib-input.mol2

> <i_m_source_file_index>
1

> <r_epik_Ionization_Penalty>
  0.0387

> <r_epik_Ionization_Penalty_Charging>
  0.0382

> <r_epik_Ionization_Penalty_Neutral>
  0.0006

> <r_epik_State_Penalty>
  0.2210

> <r_epik_Charging_Adjusted_Penalty>
0.259132146076769

> <i_epik_Tot_Q>
1

> <i_epik_Tot_abs_Q>
1

$$$$
0LI
                    3D
 Structure written by MMmdl.
 67 71  0  0  1  0            999 V2000
    4.0940   -7.3400   13.8920 N   0  0  0  0  0  0
    7.3430    7.8250   19.1290 N   0  0  0  0  0  0
    3.1100   -2.6620   13.9140 C   0  0  0  0  0  0
    3.1240   -1.2170   13.7480 C   0  0  0  0  0  0
    2.5150   -0.5470   12.6130 C   0  0  0  0  0  0
    2.5760    0.8700   12.5170 C   0  0  0  0  0  0
    3.2490    1.6490   13.5520 C   0  0  0  0  0  0
    3.7770   -0.4670   14.7510 C   0  0  0  0  0  0
    5.5040    3.8890   16.4060 C   0  0  0  0  0  0
    6.1490    6.1890   17.0020 C   0  0  0  0  0  0
    7.4820    4.2910   17.8860 C   0  0  0  0  0  0
    8.1140    6.7760   18.4920 C   0  0  0  0  0  0
    6.4850    7.3580   20.2450 C   0  0  0  0  0  0
    5.5980    8.5190   20.7600 C   0  0  0  0  0  0
    8.2360    8.9130   19.6140 C   0  0  0  0  0  0
    2.3350   -8.4230   15.3470 C   0  0  0  0  0  0
    1.2170   -8.1070   16.1180 C   0  0  0  0  0  0
    0.7960   -6.7380   16.2130 C   0  0  0  0  0  0
    1.3920   -5.6970   15.6110 N   0  0  0  0  0  0
    2.4830   -6.0660   14.8670 N   0  0  0  0  0  0
    3.0240   -7.3780   14.6770 C   0  0  0  0  0  0
    4.2660   -6.0040   13.5630 C   0  0  0  0  0  0
    3.2980   -5.2450   14.1440 C   0  0  0  0  0  0
    3.1690   -3.8560   14.0260 C   0  0  0  0  0  0
    3.8540    0.9630   14.6800 C   0  0  0  0  0  0
    1.8080   -1.3360   11.5010 C   0  0  0  0  0  0
    4.5610    1.6710   15.7780 C   0  0  0  0  0  0
    5.0700    1.0130   16.6930 O   0  0  0  0  0  0
    4.5990    3.0330   15.7040 N   0  0  0  0  0  0
    5.2890    5.2810   16.3210 C   0  0  0  0  0  0
    7.2430    5.7250   17.7850 C   0  0  0  0  0  0
    6.6020    3.4000   17.1890 C   0  0  0  0  0  0
    8.6220    3.7010   18.7020 C   0  0  0  0  0  0
    8.4210    3.9530   19.9860 F   0  0  0  0  0  0
    8.7050    2.3810   18.5780 F   0  0  0  0  0  0
    9.7940    4.2350   18.2910 F   0  0  0  0  0  0
    7.3820   10.1000   20.1030 C   0  0  0  0  0  0
    5.5690   10.8090   21.5780 C   0  0  0  0  0  0
    6.4220    9.6880   21.1710 N   0  3  0  0  0  0
    2.1230    1.3720   11.6750 H   0  0  0  0  0  0
    3.2970    2.7260   13.4800 H   0  0  0  0  0  0
    4.2270   -0.9810   15.5880 H   0  0  0  0  0  0
    5.9670    7.2510   16.9230 H   0  0  0  0  0  0
    8.7794    7.2178   17.7357 H   0  0  0  0  0  0
    8.7161    6.2522   19.2490 H   0  0  0  0  0  0
    5.8390    6.5401   19.8933 H   0  0  0  0  0  0
    7.1187    6.9966   21.0683 H   0  0  0  0  0  0
    4.9118    8.8381   19.9617 H   0  0  0  0  0  0
    5.0162    8.1783   21.6291 H   0  0  0  0  0  0
    8.8526    8.5385   20.4444 H   0  0  0  0  0  0
    8.8889    9.2448   18.7932 H   0  0  0  0  0  0
    2.6710   -9.4460   15.2610 H   0  0  0  0  0  0
    0.6740   -8.8830   16.6370 H   0  0  0  0  0  0
   -0.0730   -6.5280   16.8190 H   0  0  0  0  0  0
    5.0560   -5.6200   12.9350 H   0  0  0  0  0  0
    1.8517   -2.4111   11.7296 H   0  0  0  0  0  0
    2.3088   -1.1447   10.5405 H   0  0  0  0  0  0
    0.7572   -1.0172   11.4365 H   0  0  0  0  0  0
    3.8448    3.4647   15.0296 H   0  0  0  0  0  0
    4.4650    5.6610   15.7350 H   0  0  0  0  0  0
    6.7700    2.3350   17.2550 H   0  0  0  0  0  0
    8.0398   10.8811   20.5118 H   0  0  0  0  0  0
    6.8065   10.5096   19.2598 H   0  0  0  0  0  0
    4.8748   10.4752   22.3633 H   0  0  0  0  0  0
    4.9959   11.1676   20.7102 H   0  0  0  0  0  0
    6.1963   11.6251   21.9658 H   0  0  0  0  0  0
    7.0106    9.3892   22.0510 H   0  0  0  0  0  0
  1 21  2  0  0  0
  1 22  1  0  0  0
  2 12  1  0  0  0
  2 13  1  0  0  0
  2 15  1  0  0  0
  3  4  1  0  0  0
  3 24  3  0  0  0
  4  5  2  0  0  0
  4  8  1  0  0  0
  5  6  1  0  0  0
  5 26  1  0  0  0
  6  7  2  0  0  0
  6 40  1  0  0  0
  7 25  1  0  0  0
  7 41  1  0  0  0
  8 25  2  0  0  0
  8 42  1  0  0  0
  9 29  1  0  0  0
  9 30  2  0  0  0
  9 32  1  0  0  0
 10 30  1  0  0  0
 10 31  2  0  0  0
 10 43  1  0  0  0
 11 31  1  0  0  0
 11 32  2  0  0  0
 11 33  1  0  0  0
 12 31  1  0  0  0
 12 44  1  0  0  0
 12 45  1  0  0  0
 13 14  1  0  0  0
 13 46  1  0  0  0
 13 47  1  0  0  0
 14 39  1  0  0  0
 14 48  1  0  0  0
 14 49  1  0  0  0
 15 37  1  0  0  0
 15 50  1  0  0  0
 15 51  1  0  0  0
 16 17  2  0  0  0
 16 21  1  0  0  0
 16 52  1  0  0  0
 17 18  1  0  0  0
 17 53  1  0  0  0
 18 19  2  0  0  0
 18 54  1  0  0  0
 19 20  1  0  0  0
 20 21  1  0  0  0
 20 23  1  0  0  0
 22 23  2  0  0  0
 22 55  1  0  0  0
 23 24  1  0  0  0
 25 27  1  0  0  0
 26 56  1  0  0  0
 26 57  1  0  0  0
 26 58  1  0  0  0
 27 28  2  0  0  0
 27 29  1  0  0  0
 29 59  1  0  0  0
 30 60  1  0  0  0
 32 61  1  0  0  0
 33 34  1  0  0  0
 33 35  1  0  0  0
 33 36  1  0  0  0
 37 39  1  0  0  0
 37 62  1  0  0  0
 37 63  1  0  0  0
 38 39  1  0  0  0
 38 64  1  0  0  0
 38 65  1  0  0  0
 38 66  1  0  0  0
 39 67  1  0  0  0
M  CHG  1  39   1
M  END
> <s_m_source_file>
C:\GitHub\mcce-charges\epik_inhibitors\output-new\Ponatinib\Ponatinib-input.mol2

> <i_m_source_file_index>
1

> <r_epik_Ionization_Penalty>
  0.1101

> <r_epik_Ionization_Penalty_Charging>
  0.0870

> <r_epik_Ionization_Penalty_Neutral>
  0.0231

> <r_epik_State_Penalty>
  0.7691

> <r_epik_Charging_Adjusted_Penalty>
0.856036331343947

> <i_epik_Tot_Q>
1

> <i_epik_Tot_abs_Q>
1

$$$$
0LI
                    3D
 Structure written by MMmdl.
 66 70  0  0  1  0            999 V2000
    4.0940   -7.3400   13.8920 N   0  0  0  0  0  0
    7.3430    7.8250   19.1290 N   0  0  0  0  0  0
    3.1100   -2.6620   13.9140 C   0  0  0  0  0  0
    3.1240   -1.2170   13.7480 C   0  0  0  0  0  0
    2.5150   -0.5470   12.6130 C   0  0  0  0  0  0
    2.5760    0.8700   12.5170 C   0  0  0  0  0  0
    3.2490    1.6490   13.5520 C   0  0  0  0  0  0
    3.7770   -0.4670   14.7510 C   0  0  0  0  0  0
    5.5040    3.8890   16.4060 C   0  0  0  0  0  0
    6.1490    6.1890   17.0020 C   0  0  0  0  0  0
    7.4820    4.2910   17.8860 C   0  0  0  0  0  0
    8.1140    6.7760   18.4920 C   0  0  0  0  0  0
    6.4850    7.3580   20.2450 C   0  0  0  0  0  0
    5.5980    8.5190   20.7600 C   0  0  0  0  0  0
    8.2360    8.9130   19.6140 C   0  0  0  0  0  0
    2.3350   -8.4230   15.3470 C   0  0  0  0  0  0
    1.2170   -8.1070   16.1180 C   0  0  0  0  0  0
    0.7960   -6.7380   16.2130 C   0  0  0  0  0  0
    1.3920   -5.6970   15.6110 N   0  0  0  0  0  0
    2.4830   -6.0660   14.8670 N   0  0  0  0  0  0
    3.0240   -7.3780   14.6770 C   0  0  0  0  0  0
    4.2660   -6.0040   13.5630 C   0  0  0  0  0  0
    3.2980   -5.2450   14.1440 C   0  0  0  0  0  0
    3.1690   -3.8560   14.0260 C   0  0  0  0  0  0
    3.8540    0.9630   14.6800 C   0  0  0  0  0  0
    1.8080   -1.3360   11.5010 C   0  0  0  0  0  0
    4.5610    1.6710   15.7780 C   0  0  0  0  0  0
    5.0700    1.0130   16.6930 O   0  0  0  0  0  0
    4.5990    3.0330   15.7040 N   0  0  0  0  0  0
    5.2890    5.2810   16.3210 C   0  0  0  0  0  0
    7.2430    5.7250   17.7850 C   0  0  0  0  0  0
    6.6020    3.4000   17.1890 C   0  0  0  0  0  0
    8.6220    3.7010   18.7020 C   0  0  0  0  0  0
    8.4210    3.9530   19.9860 F   0  0  0  0  0  0
    8.7050    2.3810   18.5780 F   0  0  0  0  0  0
    9.7940    4.2350   18.2910 F   0  0  0  0  0  0
    7.3820   10.1000   20.1030 C   0  0  0  0  0  0
    5.5690   10.8090   21.5780 C   0  0  0  0  0  0
    6.4220    9.6880   21.1710 N   0  0  0  0  0  0
    2.1230    1.3720   11.6750 H   0  0  0  0  0  0
    3.2970    2.7260   13.4800 H   0  0  0  0  0  0
    4.2270   -0.9810   15.5880 H   0  0  0  0  0  0
    5.9670    7.2510   16.9230 H   0  0  0  0  0  0
    8.7794    7.2178   17.7357 H   0  0  0  0  0  0
    8.7161    6.2522   19.2490 H   0  0  0  0  0  0
    5.8390    6.5401   19.8933 H   0  0  0  0  0  0
    7.1187    6.9966   21.0683 H   0  0  0  0  0  0
    4.9118    8.8381   19.9617 H   0  0  0  0  0  0
    5.0162    8.1783   21.6291 H   0  0  0  0  0  0
    8.8526    8.5385   20.4444 H   0  0  0  0  0  0
    8.8889    9.2448   18.7932 H   0  0  0  0  0  0
    2.6710   -9.4460   15.2610 H   0  0  0  0  0  0
    0.6740   -8.8830   16.6370 H   0  0  0  0  0  0
   -0.0730   -6.5280   16.8190 H   0  0  0  0  0  0
    5.0560   -5.6200   12.9350 H   0  0  0  0  0  0
    1.8517   -2.4111   11.7296 H   0  0  0  0  0  0
    2.3088   -1.1447   10.5405 H   0  0  0  0  0  0
    0.7572   -1.0172   11.4365 H   0  0  0  0  0  0
    3.8448    3.4647   15.0296 H   0  0  0  0  0  0
    4.4650    5.6610   15.7350 H   0  0  0  0  0  0
    6.7700    2.3350   17.2550 H   0  0  0  0  0  0
    8.0398   10.8811   20.5118 H   0  0  0  0  0  0
    6.8065   10.5096   19.2598 H   0  0  0  0  0  0
    4.8748   10.4752   22.3633 H   0  0  0  0  0  0
    4.9959   11.1676   20.7102 H   0  0  0  0  0  0
    6.1963   11.6251   21.9658 H   0  0  0  0  0  0
  1 21  2  0  0  0
  1 22  1  0  0  0
  2 12  1  0  0  0
  2 13  1  0  0  0
  2 15  1  0  0  0
  3  4  1  0  0  0
  3 24  3  0  0  0
  4  5  2  0  0  0
  4  8  1  0  0  0
  5  6  1  0  0  0
  5 26  1  0  0  0
  6  7  2  0  0  0
  6 40  1  0  0  0
  7 25  1  0  0  0
  7 41  1  0  0  0
  8 25  2  0  0  0
  8 42  1  0  0  0
  9 29  1  0  0  0
  9 30  2  0  0  0
  9 32  1  0  0  0
 10 30  1  0  0  0
 10 31  2  0  0  0
 10 43  1  0  0  0
 11 31  1  0  0  0
 11 32  2  0  0  0
 11 33  1  0  0  0
 12 31  1  0  0  0
 12 44  1  0  0  0
 12 45  1  0  0  0
 13 14  1  0  0  0
 13 46  1  0  0  0
 13 47  1  0  0  0
 14 39  1  0  0  0
 14 48  1  0  0  0
 14 49  1  0  0  0
 15 37  1  0  0  0
 15 50  1  0  0  0
 15 51  1  0  0  0
 16 17  2  0  0  0
 16 21  1  0  0  0
 16 52  1  0  0  0
 17 18  1  0  0  0
 17 53  1  0  0  0
 18 19  2  0  0  0
 18 54  1  0  0  0
 19 20  1  0  0  0
 20 21  1  0  0  0
 20 23  1  0  0  0
 22 23  2  0  0  0
 22 55  1  0  0  0
 23 24  1  0  0  0
 25 27  1  0  0  0
 26 56  1  0  0  0
 26 57  1  0  0  0
 26 58  1  0  0  0
 27 28  2  0  0  0
 27 29  1  0  0  0
 29 59  1  0  0  0
 30 60  1  0  0  0
 32 61  1  0  0  0
 33 34  1  0  0  0
 33 35  1  0  0  0
 33 36  1  0  0  0
 37 39  1  0  0  0
 37 62  1  0  0  0
 37 63  1  0  0  0
 38 39  1  0  0  0
 38 64  1  0  0  0
 38 65  1  0  0  0
 38 66  1  0  0  0
M  END
> <s_m_source_file>
C:\GitHub\mcce-charges\epik_inhibitors\output-new\Ponatinib\Ponatinib-input.mol2

> <i_m_source_file_index>
1

> <r_epik_Ionization_Penalty>
  2.8256

> <r_epik_Ionization_Penalty_Charging>
  0.0001

> <r_epik_Ionization_Penalty_Neutral>
  2.8255

> <r_epik_State_Penalty>
  1.9358

> <r_epik_Charging_Adjusted_Penalty>
1.93594540754746

> <i_epik_Tot_Q>
0

> <i_epik_Tot_abs_Q>
0

$$$$
0LI
                    3D
 Structure written by MMmdl.
 68 72  0  0  1  0            999 V2000
    4.0940   -7.3400   13.8920 N   0  3  0  0  0  0
    7.3430    7.8250   19.1290 N   0  3  0  0  0  0
    3.1100   -2.6620   13.9140 C   0  0  0  0  0  0
    3.1240   -1.2170   13.7480 C   0  0  0  0  0  0
    2.5150   -0.5470   12.6130 C   0  0  0  0  0  0
    2.5760    0.8700   12.5170 C   0  0  0  0  0  0
    3.2490    1.6490   13.5520 C   0  0  0  0  0  0
    3.7770   -0.4670   14.7510 C   0  0  0  0  0  0
    5.5040    3.8890   16.4060 C   0  0  0  0  0  0
    6.1490    6.1890   17.0020 C   0  0  0  0  0  0
    7.4820    4.2910   17.8860 C   0  0  0  0  0  0
    8.1140    6.7760   18.4920 C   0  0  0  0  0  0
    6.4850    7.3580   20.2450 C   0  0  0  0  0  0
    5.5980    8.5190   20.7600 C   0  0  0  0  0  0
    8.2360    8.9130   19.6140 C   0  0  0  0  0  0
    2.3350   -8.4230   15.3470 C   0  0  0  0  0  0
    1.2170   -8.1070   16.1180 C   0  0  0  0  0  0
    0.7960   -6.7380   16.2130 C   0  0  0  0  0  0
    1.3920   -5.6970   15.6110 N   0  0  0  0  0  0
    2.4830   -6.0660   14.8670 N   0  0  0  0  0  0
    3.0240   -7.3780   14.6770 C   0  0  0  0  0  0
    4.2660   -6.0040   13.5630 C   0  0  0  0  0  0
    3.2980   -5.2450   14.1440 C   0  0  0  0  0  0
    3.1690   -3.8560   14.0260 C   0  0  0  0  0  0
    3.8540    0.9630   14.6800 C   0  0  0  0  0  0
    1.8080   -1.3360   11.5010 C   0  0  0  0  0  0
    4.5610    1.6710   15.7780 C   0  0  0  0  0  0
    5.0700    1.0130   16.6930 O   0  0  0  0  0  0
    4.5990    3.0330   15.7040 N   0  0  0  0  0  0
    5.2890    5.2810   16.3210 C   0  0  0  0  0  0
    7.2430    5.7250   17.7850 C   0  0  0  0  0  0
    6.6020    3.4000   17.1890 C   0  0  0  0  0  0
    8.6220    3.7010   18.7020 C   0  0  0  0  0  0
    8.4210    3.9530   19.9860 F   0  0  0  0  0  0
    8.7050    2.3810   18.5780 F   0  0  0  0  0  0
    9.7940    4.2350   18.2910 F   0  0  0  0  0  0
    7.3820   10.1000   20.1030 C   0  0  0  0  0  0
    5.5690   10.8090   21.5780 C   0  0  0  0  0  0
    6.4220    9.6880   21.1710 N   0  0  0  0  0  0
    2.1230    1.3720   11.6750 H   0  0  0  0  0  0
    3.2970    2.7260   13.4800 H   0  0  0  0  0  0
    4.2270   -0.9810   15.5880 H   0  0  0  0  0  0
    5.9670    7.2510   16.9230 H   0  0  0  0  0  0
    8.7794    7.2178   17.7357 H   0  0  0  0  0  0
    8.7161    6.2522   19.2490 H   0  0  0  0  0  0
    5.8390    6.5401   19.8933 H   0  0  0  0  0  0
    7.1187    6.9966   21.0683 H   0  0  0  0  0  0
    4.9118    8.8381   19.9617 H   0  0  0  0  0  0
    5.0162    8.1783   21.6291 H   0  0  0  0  0  0
    8.8526    8.5385   20.4444 H   0  0  0  0  0  0
    8.8889    9.2448   18.7932 H   0  0  0  0  0  0
    2.6710   -9.4460   15.2610 H   0  0  0  0  0  0
    0.6740   -8.8830   16.6370 H   0  0  0  0  0  0
   -0.0730   -6.5280   16.8190 H   0  0  0  0  0  0
    5.0560   -5.6200   12.9350 H   0  0  0  0  0  0
    1.8517   -2.4111   11.7296 H   0  0  0  0  0  0
    2.3088   -1.1447   10.5405 H   0  0  0  0  0  0
    0.7572   -1.0172   11.4365 H   0  0  0  0  0  0
    3.8448    3.4647   15.0296 H   0  0  0  0  0  0
    4.4650    5.6610   15.7350 H   0  0  0  0  0  0
    6.7700    2.3350   17.2550 H   0  0  0  0  0  0
    8.0398   10.8811   20.5118 H   0  0  0  0  0  0
    6.8065   10.5096   19.2598 H   0  0  0  0  0  0
    4.8748   10.4752   22.3633 H   0  0  0  0  0  0
    4.9959   11.1676   20.7102 H   0  0  0  0  0  0
    6.1963   11.6251   21.9658 H   0  0  0  0  0  0
    6.6751    8.1797   18.3302 H   0  0  0  0  0  0
    4.6281   -8.2693   13.6448 H   0  0  0  0  0  0
  1 21  2  0  0  0
  1 22  1  0  0  0
  1 68  1  0  0  0
  2 12  1  0  0  0
  2 13  1  0  0  0
  2 15  1  0  0  0
  2 67  1  0  0  0
  3  4  1  0  0  0
  3 24  3  0  0  0
  4  5  2  0  0  0
  4  8  1  0  0  0
  5  6  1  0  0  0
  5 26  1  0  0  0
  6  7  2  0  0  0
  6 40  1  0  0  0
  7 25  1  0  0  0
  7 41  1  0  0  0
  8 25  2  0  0  0
  8 42  1  0  0  0
  9 29  1  0  0  0
  9 30  2  0  0  0
  9 32  1  0  0  0
 10 30  1  0  0  0
 10 31  2  0  0  0
 10 43  1  0  0  0
 11 31  1  0  0  0
 11 32  2  0  0  0
 11 33  1  0  0  0
 12 31  1  0  0  0
 12 44  1  0  0  0
 12 45  1  0  0  0
 13 14  1  0  0  0
 13 46  1  0  0  0
 13 47  1  0  0  0
 14 39  1  0  0  0
 14 48  1  0  0  0
 14 49  1  0  0  0
 15 37  1  0  0  0
 15 50  1  0  0  0
 15 51  1  0  0  0
 16 17  2  0  0  0
 16 21  1  0  0  0
 16 52  1  0  0  0
 17 18  1  0  0  0
 17 53  1  0  0  0
 18 19  2  0  0  0
 18 54  1  0  0  0
 19 20  1  0  0  0
 20 21  1  0  0  0
 20 23  1  0  0  0
 22 23  2  0  0  0
 22 55  1  0  0  0
 23 24  1  0  0  0
 25 27  1  0  0  0
 26 56  1  0  0  0
 26 57  1  0  0  0
 26 58  1  0  0  0
 27 28  2  0  0  0
 27 29  1  0  0  0
 29 59  1  0  0  0
 30 60  1  0  0  0
 32 61  1  0  0  0
 33 34  1  0  0  0
 33 35  1  0  0  0
 33 36  1  0  0  0
 37 39  1  0  0  0
 37 62  1  0  0  0
 37 63  1  0  0  0
 38 39  1  0  0  0
 38 64  1  0  0  0
 38 65  1  0  0  0
 38 66  1  0  0  0
M  CHG  2   1   1   2   1
M  END
> <s_m_source_file>
C:\GitHub\mcce-charges\epik_inhibitors\output-new\Ponatinib\Ponatinib-input.mol2

> <i_m_source_file_index>
1

> <r_epik_Ionization_Penalty>
  5.2131

> <r_epik_Ionization_Penalty_Charging>
  0.0381

> <r_epik_Ionization_Penalty_Neutral>
  5.1750

> <r_epik_State_Penalty>
  5.7424

> <r_epik_Charging_Adjusted_Penalty>
5.78045038200604

> <i_epik_Tot_Q>
2

> <i_epik_Tot_abs_Q>
2

$$$$
