@<TRIPOS>MOLECULE
3-(2-imidazo[1,2-b]pyridazin-3-ylethynyl)-4-methyl-~{N}-[4-[(4-methylpiperazin-1-ium-1-yl)methyl]-3-(trifluoromethyl)phenyl]benzamide
   67    71     1     0     0
SMALL
USER_CHARGES

@<TRIPOS>ATOM
      1 N1          4.0940   -7.3400   13.8920 N.ar      1 0LI        -0.6424
      2 N3          7.3430    7.8250   19.1290 N.4       1 0LI        -0.6836
      3 C4          3.1100   -2.6620   13.9140 C.1       1 0LI        -0.1189
      4 C5          3.1240   -1.2170   13.7480 C.ar      1 0LI         0.0302
      5 C6          2.5150   -0.5470   12.6130 C.ar      1 0LI        -0.0046
      6 C7          2.5760    0.8700   12.5170 C.ar      1 0LI        -0.1430
      7 C8          3.2490    1.6490   13.5520 C.ar      1 0LI        -0.0934
      8 C10         3.7770   -0.4670   14.7510 C.ar      1 0LI        -0.0380
      9 C13         5.5040    3.8890   16.4060 C.ar      1 0LI         0.1313
     10 C15         6.1490    6.1890   17.0020 C.ar      1 0LI        -0.1171
     11 C17         7.4820    4.2910   17.8860 C.ar      1 0LI        -0.0945
     12 C20         8.1140    6.7760   18.4920 C.3       1 0LI         0.1573
     13 C21         6.4850    7.3580   20.2450 C.3       1 0LI         0.1085
     14 C22         5.5980    8.5190   20.7600 C.3       1 0LI         0.1488
     15 C24         8.2360    8.9130   19.6140 C.3       1 0LI         0.1085
     16 C81         2.3350   -8.4230   15.3470 C.ar      1 0LI        -0.1550
     17 C82         1.2170   -8.1070   16.1180 C.ar      1 0LI        -0.2544
     18 C83         0.7960   -6.7380   16.2130 C.ar      1 0LI         0.4002
     19 N81         1.3920   -5.6970   15.6110 N.ar      1 0LI        -0.4906
     20 N82         2.4830   -6.0660   14.8670 N.pl3     1 0LI         0.0746
     21 C84         3.0240   -7.3780   14.6770 C.ar      1 0LI         0.4269
     22 C1          4.2660   -6.0040   13.5630 C.ar      1 0LI         0.3737
     23 C2          3.2980   -5.2450   14.1440 C.ar      1 0LI        -0.1151
     24 C3          3.1690   -3.8560   14.0260 C.1       1 0LI        -0.0281
     25 C9          3.8540    0.9630   14.6800 C.ar      1 0LI        -0.1750
     26 C11         1.8080   -1.3360   11.5010 C.3       1 0LI        -0.0718
     27 C12         4.5610    1.6710   15.7780 C.2       1 0LI         0.6998
     28 O1          5.0700    1.0130   16.6930 O.2       1 0LI        -0.5722
     29 N2          4.5990    3.0330   15.7040 N.am      1 0LI        -0.4816
     30 C14         5.2890    5.2810   16.3210 C.ar      1 0LI        -0.1188
     31 C16         7.2430    5.7250   17.7850 C.ar      1 0LI        -0.1560
     32 C18         6.6020    3.4000   17.1890 C.ar      1 0LI        -0.1523
     33 C19         8.6220    3.7010   18.7020 C.3       1 0LI         0.6833
     34 F1          8.4210    3.9530   19.9860 F         1 0LI        -0.2264
     35 F2          8.7050    2.3810   18.5780 F         1 0LI        -0.2264
     36 F3          9.7940    4.2350   18.2910 F         1 0LI        -0.2264
     37 C23         7.3820   10.1000   20.1030 C.3       1 0LI         0.1488
     38 C25         5.5690   10.8090   21.5780 C.3       1 0LI         0.1521
     39 N4          6.4220    9.6880   21.1710 N.3       1 0LI        -0.7410
     40 H7          2.1230    1.3720   11.6750 H         1 0LI         0.1492
     41 H8          3.2970    2.7260   13.4800 H         1 0LI         0.1278
     42 H10         4.2270   -0.9810   15.5880 H         1 0LI         0.1672
     43 H15         5.9670    7.2510   16.9230 H         1 0LI         0.1295
     44 H20         8.7794    7.2178   17.7357 H         1 0LI         0.1162
     45 H20A        8.7161    6.2522   19.2490 H         1 0LI         0.1162
     46 H21         5.8390    6.5401   19.8933 H         1 0LI         0.1071
     47 H21A        7.1187    6.9966   21.0683 H         1 0LI         0.1071
     48 H22         4.9118    8.8381   19.9617 H         1 0LI         0.0750
     49 H22A        5.0162    8.1783   21.6291 H         1 0LI         0.0750
     50 H24         8.8526    8.5385   20.4444 H         1 0LI         0.1071
     51 H24A        8.8889    9.2448   18.7932 H         1 0LI         0.1071
     52 H81         2.6710   -9.4460   15.2610 H         1 0LI         0.1756
     53 H82         0.6740   -8.8830   16.6370 H         1 0LI         0.1619
     54 H83        -0.0730   -6.5280   16.8190 H         1 0LI         0.0564
     55 H1          5.0560   -5.6200   12.9350 H         1 0LI         0.0558
     56 H11         1.8517   -2.4111   11.7296 H         1 0LI         0.0626
     57 H11A        2.3088   -1.1447   10.5405 H         1 0LI         0.0626
     58 H11B        0.7572   -1.0172   11.4365 H         1 0LI         0.0626
     59 HN2         3.8448    3.4647   15.0296 H         1 0LI         0.3350
     60 H14         4.4650    5.6610   15.7350 H         1 0LI         0.1941
     61 H18         6.7700    2.3350   17.2550 H         1 0LI         0.1682
     62 H23         8.0398   10.8811   20.5118 H         1 0LI         0.0750
     63 H23A        6.8065   10.5096   19.2598 H         1 0LI         0.0750
     64 H25         4.8748   10.4752   22.3633 H         1 0LI         0.0566
     65 H25A        4.9959   11.1676   20.7102 H         1 0LI         0.0566
     66 H25B        6.1963   11.6251   21.9658 H         1 0LI         0.0566
     67 H67         6.6751    8.1797   18.3302 H         1 0LI         0.4432
@<TRIPOS>BOND
     1    1   21 ar
     2    1   22 ar
     3    2   12 1
     4    2   13 1
     5    2   15 1
     6    2   67 1
     7    3    4 1
     8    3   24 3
     9    4    5 ar
    10    4    8 ar
    11    5    6 ar
    12    5   26 1
    13    6    7 ar
    14    6   40 1
    15    7   25 ar
    16    7   41 1
    17    8   25 ar
    18    8   42 1
    19    9   29 1
    20    9   30 ar
    21    9   32 ar
    22   10   30 ar
    23   10   31 ar
    24   10   43 1
    25   11   31 ar
    26   11   32 ar
    27   11   33 1
    28   12   31 1
    29   12   44 1
    30   12   45 1
    31   13   14 1
    32   13   46 1
    33   13   47 1
    34   14   39 1
    35   14   48 1
    36   14   49 1
    37   15   37 1
    38   15   50 1
    39   15   51 1
    40   16   17 ar
    41   16   21 ar
    42   16   52 1
    43   17   18 ar
    44   17   53 1
    45   18   19 ar
    46   18   54 1
    47   19   20 ar
    48   20   21 ar
    49   20   23 ar
    50   22   23 ar
    51   22   55 1
    52   23   24 1
    53   25   27 1
    54   26   56 1
    55   26   57 1
    56   26   58 1
    57   27   28 2
    58   27   29 am
    59   29   59 1
    60   30   60 1
    61   32   61 1
    62   33   34 1
    63   33   35 1
    64   33   36 1
    65   37   39 1
    66   37   62 1
    67   37   63 1
    68   38   39 1
    69   38   64 1
    70   38   65 1
    71   38   66 1
@<TRIPOS>SUBSTRUCTURE
     1 0LI         1 GROUP   0 A     ****
@<TRIPOS>MOLECULE
3-(2-imidazo[1,2-b]pyridazin-3-ylethynyl)-4-methyl-~{N}-[4-[(4-methylpiperazin-4-ium-1-yl)methyl]-3-(trifluoromethyl)phenyl]benzamide
   67    71     1     0     0
SMALL
USER_CHARGES

@<TRIPOS>ATOM
      1 N1          4.0940   -7.3400   13.8920 N.ar      1 0LI        -0.6427
      2 N3          7.3430    7.8250   19.1290 N.3       1 0LI        -0.7561
      3 C4          3.1100   -2.6620   13.9140 C.1       1 0LI        -0.1062
      4 C5          3.1240   -1.2170   13.7480 C.ar      1 0LI         0.0252
      5 C6          2.5150   -0.5470   12.6130 C.ar      1 0LI        -0.0122
      6 C7          2.5760    0.8700   12.5170 C.ar      1 0LI        -0.1426
      7 C8          3.2490    1.6490   13.5520 C.ar      1 0LI        -0.0950
      8 C10         3.7770   -0.4670   14.7510 C.ar      1 0LI        -0.0416
      9 C13         5.5040    3.8890   16.4060 C.ar      1 0LI         0.0987
     10 C15         6.1490    6.1890   17.0020 C.ar      1 0LI        -0.1107
     11 C17         7.4820    4.2910   17.8860 C.ar      1 0LI        -0.1230
     12 C20         8.1140    6.7760   18.4920 C.3       1 0LI         0.2245
     13 C21         6.4850    7.3580   20.2450 C.3       1 0LI         0.1495
     14 C22         5.5980    8.5190   20.7600 C.3       1 0LI         0.1053
     15 C24         8.2360    8.9130   19.6140 C.3       1 0LI         0.1495
     16 C81         2.3350   -8.4230   15.3470 C.ar      1 0LI        -0.1542
     17 C82         1.2170   -8.1070   16.1180 C.ar      1 0LI        -0.2561
     18 C83         0.7960   -6.7380   16.2130 C.ar      1 0LI         0.3977
     19 N81         1.3920   -5.6970   15.6110 N.ar      1 0LI        -0.4883
     20 N82         2.4830   -6.0660   14.8670 N.pl3     1 0LI         0.0747
     21 C84         3.0240   -7.3780   14.6770 C.ar      1 0LI         0.4226
     22 C1          4.2660   -6.0040   13.5630 C.ar      1 0LI         0.3712
     23 C2          3.2980   -5.2450   14.1440 C.ar      1 0LI        -0.1075
     24 C3          3.1690   -3.8560   14.0260 C.1       1 0LI        -0.0415
     25 C9          3.8540    0.9630   14.6800 C.ar      1 0LI        -0.1716
     26 C11         1.8080   -1.3360   11.5010 C.3       1 0LI        -0.0695
     27 C12         4.5610    1.6710   15.7780 C.2       1 0LI         0.6958
     28 O1          5.0700    1.0130   16.6930 O.2       1 0LI        -0.5831
     29 N2          4.5990    3.0330   15.7040 N.am      1 0LI        -0.4727
     30 C14         5.2890    5.2810   16.3210 C.ar      1 0LI        -0.1397
     31 C16         7.2430    5.7250   17.7850 C.ar      1 0LI        -0.0890
     32 C18         6.6020    3.4000   17.1890 C.ar      1 0LI        -0.1474
     33 C19         8.6220    3.7010   18.7020 C.3       1 0LI         0.6835
     34 F1          8.4210    3.9530   19.9860 F         1 0LI        -0.2334
     35 F2          8.7050    2.3810   18.5780 F         1 0LI        -0.2334
     36 F3          9.7940    4.2350   18.2910 F         1 0LI        -0.2334
     37 C23         7.3820   10.1000   20.1030 C.3       1 0LI         0.1053
     38 C25         5.5690   10.8090   21.5780 C.3       1 0LI         0.0838
     39 N4          6.4220    9.6880   21.1710 N.4       1 0LI        -0.6838
     40 H7          2.1230    1.3720   11.6750 H         1 0LI         0.1470
     41 H8          3.2970    2.7260   13.4800 H         1 0LI         0.1340
     42 H10         4.2270   -0.9810   15.5880 H         1 0LI         0.1666
     43 H15         5.9670    7.2510   16.9230 H         1 0LI         0.1358
     44 H20         8.7794    7.2178   17.7357 H         1 0LI         0.0704
     45 H20A        8.7161    6.2522   19.2490 H         1 0LI         0.0704
     46 H21         5.8390    6.5401   19.8933 H         1 0LI         0.0796
     47 H21A        7.1187    6.9966   21.0683 H         1 0LI         0.0796
     48 H22         4.9118    8.8381   19.9617 H         1 0LI         0.1099
     49 H22A        5.0162    8.1783   21.6291 H         1 0LI         0.1099
     50 H24         8.8526    8.5385   20.4444 H         1 0LI         0.0796
     51 H24A        8.8889    9.2448   18.7932 H         1 0LI         0.0796
     52 H81         2.6710   -9.4460   15.2610 H         1 0LI         0.1744
     53 H82         0.6740   -8.8830   16.6370 H         1 0LI         0.1610
     54 H83        -0.0730   -6.5280   16.8190 H         1 0LI         0.0537
     55 H1          5.0560   -5.6200   12.9350 H         1 0LI         0.0563
     56 H11         1.8517   -2.4111   11.7296 H         1 0LI         0.0601
     57 H11A        2.3088   -1.1447   10.5405 H         1 0LI         0.0601
     58 H11B        0.7572   -1.0172   11.4365 H         1 0LI         0.0601
     59 HN2         3.8448    3.4647   15.0296 H         1 0LI         0.3301
     60 H14         4.4650    5.6610   15.7350 H         1 0LI         0.1895
     61 H18         6.7700    2.3350   17.2550 H         1 0LI         0.1570
     62 H23         8.0398   10.8811   20.5118 H         1 0LI         0.1099
     63 H23A        6.8065   10.5096   19.2598 H         1 0LI         0.1099
     64 H25         4.8748   10.4752   22.3633 H         1 0LI         0.1055
     65 H25A        4.9959   11.1676   20.7102 H         1 0LI         0.1055
     66 H25B        6.1963   11.6251   21.9658 H         1 0LI         0.1055
     67 H67         7.0106    9.3892   22.0510 H         1 0LI         0.4463
@<TRIPOS>BOND
     1    1   21 ar
     2    1   22 ar
     3    2   12 1
     4    2   13 1
     5    2   15 1
     6    3    4 1
     7    3   24 3
     8    4    5 ar
     9    4    8 ar
    10    5    6 ar
    11    5   26 1
    12    6    7 ar
    13    6   40 1
    14    7   25 ar
    15    7   41 1
    16    8   25 ar
    17    8   42 1
    18    9   29 1
    19    9   30 ar
    20    9   32 ar
    21   10   30 ar
    22   10   31 ar
    23   10   43 1
    24   11   31 ar
    25   11   32 ar
    26   11   33 1
    27   12   31 1
    28   12   44 1
    29   12   45 1
    30   13   14 1
    31   13   46 1
    32   13   47 1
    33   14   39 1
    34   14   48 1
    35   14   49 1
    36   15   37 1
    37   15   50 1
    38   15   51 1
    39   16   17 ar
    40   16   21 ar
    41   16   52 1
    42   17   18 ar
    43   17   53 1
    44   18   19 ar
    45   18   54 1
    46   19   20 ar
    47   20   21 ar
    48   20   23 ar
    49   22   23 ar
    50   22   55 1
    51   23   24 1
    52   25   27 1
    53   26   56 1
    54   26   57 1
    55   26   58 1
    56   27   28 2
    57   27   29 am
    58   29   59 1
    59   30   60 1
    60   32   61 1
    61   33   34 1
    62   33   35 1
    63   33   36 1
    64   37   39 1
    65   37   62 1
    66   37   63 1
    67   38   39 1
    68   38   64 1
    69   38   65 1
    70   38   66 1
    71   39   67 1
@<TRIPOS>SUBSTRUCTURE
     1 0LI         1 GROUP   0 A     ****
@<TRIPOS>MOLECULE
3-(2-imidazo[1,2-b]pyridazin-3-ylethynyl)-4-methyl-~{N}-[4-[(4-methylpiperazin-1-yl)methyl]-3-(trifluoromethyl)phenyl]benzamide
   66    70     1     0     0
SMALL
USER_CHARGES

@<TRIPOS>ATOM
      1 N1          4.0940   -7.3400   13.8920 N.ar      1 0LI        -0.6443
      2 N3          7.3430    7.8250   19.1290 N.3       1 0LI        -0.7549
      3 C4          3.1100   -2.6620   13.9140 C.1       1 0LI        -0.0847
      4 C5          3.1240   -1.2170   13.7480 C.ar      1 0LI         0.0133
      5 C6          2.5150   -0.5470   12.6130 C.ar      1 0LI        -0.0180
      6 C7          2.5760    0.8700   12.5170 C.ar      1 0LI        -0.1470
      7 C8          3.2490    1.6490   13.5520 C.ar      1 0LI        -0.0909
      8 C10         3.7770   -0.4670   14.7510 C.ar      1 0LI        -0.0417
      9 C13         5.5040    3.8890   16.4060 C.ar      1 0LI         0.0687
     10 C15         6.1490    6.1890   17.0020 C.ar      1 0LI        -0.1002
     11 C17         7.4820    4.2910   17.8860 C.ar      1 0LI        -0.1394
     12 C20         8.1140    6.7760   18.4920 C.3       1 0LI         0.2192
     13 C21         6.4850    7.3580   20.2450 C.3       1 0LI         0.1752
     14 C22         5.5980    8.5190   20.7600 C.3       1 0LI         0.1709
     15 C24         8.2360    8.9130   19.6140 C.3       1 0LI         0.1752
     16 C81         2.3350   -8.4230   15.3470 C.ar      1 0LI        -0.1554
     17 C82         1.2170   -8.1070   16.1180 C.ar      1 0LI        -0.2593
     18 C83         0.7960   -6.7380   16.2130 C.ar      1 0LI         0.3958
     19 N81         1.3920   -5.6970   15.6110 N.ar      1 0LI        -0.4828
     20 N82         2.4830   -6.0660   14.8670 N.pl3     1 0LI         0.0731
     21 C84         3.0240   -7.3780   14.6770 C.ar      1 0LI         0.4160
     22 C1          4.2660   -6.0040   13.5630 C.ar      1 0LI         0.3638
     23 C2          3.2980   -5.2450   14.1440 C.ar      1 0LI        -0.0931
     24 C3          3.1690   -3.8560   14.0260 C.1       1 0LI        -0.0652
     25 C9          3.8540    0.9630   14.6800 C.ar      1 0LI        -0.1637
     26 C11         1.8080   -1.3360   11.5010 C.3       1 0LI        -0.0670
     27 C12         4.5610    1.6710   15.7780 C.2       1 0LI         0.6879
     28 O1          5.0700    1.0130   16.6930 O.2       1 0LI        -0.5815
     29 N2          4.5990    3.0330   15.7040 N.am      1 0LI        -0.4699
     30 C14         5.2890    5.2810   16.3210 C.ar      1 0LI        -0.1348
     31 C16         7.2430    5.7250   17.7850 C.ar      1 0LI        -0.0509
     32 C18         6.6020    3.4000   17.1890 C.ar      1 0LI        -0.1526
     33 C19         8.6220    3.7010   18.7020 C.3       1 0LI         0.6855
     34 F1          8.4210    3.9530   19.9860 F         1 0LI        -0.2395
     35 F2          8.7050    2.3810   18.5780 F         1 0LI        -0.2395
     36 F3          9.7940    4.2350   18.2910 F         1 0LI        -0.2395
     37 C23         7.3820   10.1000   20.1030 C.3       1 0LI         0.1709
     38 C25         5.5690   10.8090   21.5780 C.3       1 0LI         0.1611
     39 N4          6.4220    9.6880   21.1710 N.3       1 0LI        -0.7388
     40 H7          2.1230    1.3720   11.6750 H         1 0LI         0.1421
     41 H8          3.2970    2.7260   13.4800 H         1 0LI         0.1369
     42 H10         4.2270   -0.9810   15.5880 H         1 0LI         0.1677
     43 H15         5.9670    7.2510   16.9230 H         1 0LI         0.1638
     44 H20         8.7794    7.2178   17.7357 H         1 0LI         0.0554
     45 H20A        8.7161    6.2522   19.2490 H         1 0LI         0.0554
     46 H21         5.8390    6.5401   19.8933 H         1 0LI         0.0399
     47 H21A        7.1187    6.9966   21.0683 H         1 0LI         0.0399
     48 H22         4.9118    8.8381   19.9617 H         1 0LI         0.0369
     49 H22A        5.0162    8.1783   21.6291 H         1 0LI         0.0369
     50 H24         8.8526    8.5385   20.4444 H         1 0LI         0.0399
     51 H24A        8.8889    9.2448   18.7932 H         1 0LI         0.0399
     52 H81         2.6710   -9.4460   15.2610 H         1 0LI         0.1702
     53 H82         0.6740   -8.8830   16.6370 H         1 0LI         0.1576
     54 H83        -0.0730   -6.5280   16.8190 H         1 0LI         0.0542
     55 H1          5.0560   -5.6200   12.9350 H         1 0LI         0.0544
     56 H11         1.8517   -2.4111   11.7296 H         1 0LI         0.0563
     57 H11A        2.3088   -1.1447   10.5405 H         1 0LI         0.0563
     58 H11B        0.7572   -1.0172   11.4365 H         1 0LI         0.0563
     59 HN2         3.8448    3.4647   15.0296 H         1 0LI         0.3224
     60 H14         4.4650    5.6610   15.7350 H         1 0LI         0.1820
     61 H18         6.7700    2.3350   17.2550 H         1 0LI         0.1444
     62 H23         8.0398   10.8811   20.5118 H         1 0LI         0.0369
     63 H23A        6.8065   10.5096   19.2598 H         1 0LI         0.0369
     64 H25         4.8748   10.4752   22.3633 H         1 0LI         0.0320
     65 H25A        4.9959   11.1676   20.7102 H         1 0LI         0.0320
     66 H25B        6.1963   11.6251   21.9658 H         1 0LI         0.0320
@<TRIPOS>BOND
     1    1   21 ar
     2    1   22 ar
     3    2   12 1
     4    2   13 1
     5    2   15 1
     6    3    4 1
     7    3   24 3
     8    4    5 ar
     9    4    8 ar
    10    5    6 ar
    11    5   26 1
    12    6    7 ar
    13    6   40 1
    14    7   25 ar
    15    7   41 1
    16    8   25 ar
    17    8   42 1
    18    9   29 1
    19    9   30 ar
    20    9   32 ar
    21   10   30 ar
    22   10   31 ar
    23   10   43 1
    24   11   31 ar
    25   11   32 ar
    26   11   33 1
    27   12   31 1
    28   12   44 1
    29   12   45 1
    30   13   14 1
    31   13   46 1
    32   13   47 1
    33   14   39 1
    34   14   48 1
    35   14   49 1
    36   15   37 1
    37   15   50 1
    38   15   51 1
    39   16   17 ar
    40   16   21 ar
    41   16   52 1
    42   17   18 ar
    43   17   53 1
    44   18   19 ar
    45   18   54 1
    46   19   20 ar
    47   20   21 ar
    48   20   23 ar
    49   22   23 ar
    50   22   55 1
    51   23   24 1
    52   25   27 1
    53   26   56 1
    54   26   57 1
    55   26   58 1
    56   27   28 2
    57   27   29 am
    58   29   59 1
    59   30   60 1
    60   32   61 1
    61   33   34 1
    62   33   35 1
    63   33   36 1
    64   37   39 1
    65   37   62 1
    66   37   63 1
    67   38   39 1
    68   38   64 1
    69   38   65 1
    70   38   66 1
@<TRIPOS>SUBSTRUCTURE
     1 0LI         1 GROUP   0 A     ****
@<TRIPOS>MOLECULE
3-[2-(1~{H}-imidazo[1,2-b]pyridazin-5-id-3-yl)ethynyl]-4-methyl-~{N}-[4-[(4-methylpiperazin-1-ium-1-yl)methyl]-3-(trifluoromethyl)phenyl]benzamide
   68    72     1     0     0
SMALL
USER_CHARGES

@<TRIPOS>ATOM
      1 N1          4.0940   -7.3400   13.8920 N.pl3     1 0LI        -0.3688
      2 N3          7.3430    7.8250   19.1290 N.4       1 0LI        -0.6794
      3 C4          3.1100   -2.6620   13.9140 C.1       1 0LI         0.0040
      4 C5          3.1240   -1.2170   13.7480 C.ar      1 0LI        -0.0040
      5 C6          2.5150   -0.5470   12.6130 C.ar      1 0LI        -0.0073
      6 C7          2.5760    0.8700   12.5170 C.ar      1 0LI         0.0000
      7 C8          3.2490    1.6490   13.5520 C.ar      1 0LI         0.0000
      8 C10         3.7770   -0.4670   14.7510 C.ar      1 0LI         0.0000
      9 C13         5.5040    3.8890   16.4060 C.ar      1 0LI        -0.0074
     10 C15         6.1490    6.1890   17.0020 C.ar      1 0LI         0.0000
     11 C17         7.4820    4.2910   17.8860 C.ar      1 0LI        -0.0073
     12 C20         8.1140    6.7760   18.4920 C.3       1 0LI         0.2441
     13 C21         6.4850    7.3580   20.2450 C.3       1 0LI         0.2368
     14 C22         5.5980    8.5190   20.7600 C.3       1 0LI         0.2368
     15 C24         8.2360    8.9130   19.6140 C.3       1 0LI         0.2368
     16 C81         2.3350   -8.4230   15.3470 C.2       1 0LI         0.0000
     17 C82         1.2170   -8.1070   16.1180 C.2       1 0LI         0.0000
     18 C83         0.7960   -6.7380   16.2130 C.2       1 0LI         0.0820
     19 N81         1.3920   -5.6970   15.6110 N.2       1 0LI        -0.0820
     20 N82         2.4830   -6.0660   14.8670 N.pl3     1 0LI        -0.1640
     21 C84         3.0240   -7.3780   14.6770 C.2       1 0LI         0.1640
     22 C1          4.2660   -6.0040   13.5630 C.2       1 0LI         0.0820
     23 C2          3.2980   -5.2450   14.1440 C.2       1 0LI         0.1153
     24 C3          3.1690   -3.8560   14.0260 C.1       1 0LI        -0.0333
     25 C9          3.8540    0.9630   14.6800 C.ar      1 0LI        -0.0206
     26 C11         1.8080   -1.3360   11.5010 C.3       1 0LI         0.1252
     27 C12         4.5610    1.6710   15.7780 C.2       1 0LI         0.3267
     28 O1          5.0700    1.0130   16.6930 O.2       1 0LI        -0.2391
     29 N2          4.5990    3.0330   15.7040 N.am      1 0LI        -0.1461
     30 C14         5.2890    5.2810   16.3210 C.ar      1 0LI         0.0000
     31 C16         7.2430    5.7250   17.7850 C.ar      1 0LI        -0.0073
     32 C18         6.6020    3.4000   17.1890 C.ar      1 0LI         0.0000
     33 C19         8.6220    3.7010   18.7020 C.3       1 0LI         0.2212
     34 F1          8.4210    3.9530   19.9860 F         1 0LI        -0.0713
     35 F2          8.7050    2.3810   18.5780 F         1 0LI        -0.0713
     36 F3          9.7940    4.2350   18.2910 F         1 0LI        -0.0713
     37 C23         7.3820   10.1000   20.1030 C.3       1 0LI         0.2368
     38 C25         5.5690   10.8090   21.5780 C.3       1 0LI         0.2761
     39 N4          6.4220    9.6880   21.1710 N.3       1 0LI        -0.4746
     40 H7          2.1230    1.3720   11.6750 H         1 0LI         0.0000
     41 H8          3.2970    2.7260   13.4800 H         1 0LI         0.0000
     42 H10         4.2270   -0.9810   15.5880 H         1 0LI         0.0000
     43 H15         5.9670    7.2510   16.9230 H         1 0LI         0.0000
     44 H20         8.7794    7.2178   17.7357 H         1 0LI        -0.0393
     45 H20A        8.7161    6.2522   19.2490 H         1 0LI        -0.0393
     46 H21         5.8390    6.5401   19.8933 H         1 0LI        -0.0393
     47 H21A        7.1187    6.9966   21.0683 H         1 0LI        -0.0393
     48 H22         4.9118    8.8381   19.9617 H         1 0LI        -0.0393
     49 H22A        5.0162    8.1783   21.6291 H         1 0LI        -0.0393
     50 H24         8.8526    8.5385   20.4444 H         1 0LI        -0.0393
     51 H24A        8.8889    9.2448   18.7932 H         1 0LI        -0.0393
     52 H81         2.6710   -9.4460   15.2610 H         1 0LI         0.0000
     53 H82         0.6740   -8.8830   16.6370 H         1 0LI         0.0000
     54 H83        -0.0730   -6.5280   16.8190 H         1 0LI         0.0000
     55 H1          5.0560   -5.6200   12.9350 H         1 0LI         0.0000
     56 H11         1.8517   -2.4111   11.7296 H         1 0LI        -0.0393
     57 H11A        2.3088   -1.1447   10.5405 H         1 0LI        -0.0393
     58 H11B        0.7572   -1.0172   11.4365 H         1 0LI        -0.0393
     59 HN2         3.8448    3.4647   15.0296 H         1 0LI         0.0865
     60 H14         4.4650    5.6610   15.7350 H         1 0LI         0.0000
     61 H18         6.7700    2.3350   17.2550 H         1 0LI         0.0000
     62 H23         8.0398   10.8811   20.5118 H         1 0LI        -0.0393
     63 H23A        6.8065   10.5096   19.2598 H         1 0LI        -0.0393
     64 H25         4.8748   10.4752   22.3633 H         1 0LI        -0.0393
     65 H25A        4.9959   11.1676   20.7102 H         1 0LI        -0.0393
     66 H25B        6.1963   11.6251   21.9658 H         1 0LI        -0.0393
     67 H67         6.6751    8.1797   18.3302 H         1 0LI         0.2048
     68 H68         4.6281   -8.2693   13.6448 H         1 0LI         0.2048
@<TRIPOS>BOND
     1    1   21 1
     2    1   22 1
     3    1   68 1
     4    2   12 1
     5    2   13 1
     6    2   15 1
     7    2   67 1
     8    3    4 1
     9    3   24 3
    10    4    5 ar
    11    4    8 ar
    12    5    6 ar
    13    5   26 1
    14    6    7 ar
    15    6   40 1
    16    7   25 ar
    17    7   41 1
    18    8   25 ar
    19    8   42 1
    20    9   29 1
    21    9   30 ar
    22    9   32 ar
    23   10   30 ar
    24   10   31 ar
    25   10   43 1
    26   11   31 ar
    27   11   32 ar
    28   11   33 1
    29   12   31 1
    30   12   44 1
    31   12   45 1
    32   13   14 1
    33   13   46 1
    34   13   47 1
    35   14   39 1
    36   14   48 1
    37   14   49 1
    38   15   37 1
    39   15   50 1
    40   15   51 1
    41   16   17 1
    42   16   21 2
    43   16   52 1
    44   17   18 2
    45   17   53 1
    46   18   19 1
    47   18   54 1
    48   19   20 1
    49   20   21 1
    50   20   23 1
    51   22   23 2
    52   22   55 1
    53   23   24 1
    54   25   27 1
    55   26   56 1
    56   26   57 1
    57   26   58 1
    58   27   28 2
    59   27   29 am
    60   29   59 1
    61   30   60 1
    62   32   61 1
    63   33   34 1
    64   33   35 1
    65   33   36 1
    66   37   39 1
    67   37   62 1
    68   37   63 1
    69   38   39 1
    70   38   64 1
    71   38   65 1
    72   38   66 1
@<TRIPOS>SUBSTRUCTURE
     1 0LI         1 GROUP   0 A     ****
