@<TRIPOS>MOLECULE
~{N}-[3-[5-(4-chlorophenyl)-1~{H}-pyrrolo[2,3-b]pyridine-3-carbonyl]-2,4-difluoro-phenyl]propane-1-sulfonamide
   51    54     1     0     0
SMALL
USER_CHARGES

@<TRIPOS>ATOM
      1 C10         8.9815   -4.2338  -21.0594 C.ar      1 032         0.0190
      2 C15         1.0487   -1.3201  -18.6323 C.ar      1 032         0.0856
      3 C17         1.1481   -1.8369  -21.1273 C.2       1 032         0.6278
      4 C20        -1.2024   -2.5790  -20.8320 C.ar      1 032         0.1497
      5 C21        -2.5801   -2.3983  -21.0167 C.ar      1 032         0.1077
      6 C22        -3.0367   -1.2730  -21.7079 C.ar      1 032        -0.1355
      7 C24        -0.7571   -0.5222  -22.0047 C.ar      1 032         0.1452
      8 C01         5.3703   -2.7730  -19.2527 C.ar      1 032        -0.1697
      9 C02         5.2932   -2.4836  -17.8858 C.ar      1 032         0.4226
     10 N03         4.2080   -2.0193  -17.2090 N.ar      1 032        -0.6606
     11 C04         4.2038   -2.5647  -20.0076 C.ar      1 032        -0.0320
     12 N14         1.9193   -1.3864  -17.5716 N.pl3     1 032        -0.6638
     13 C16         1.7054   -1.7540  -19.7762 C.ar      1 032        -0.2254
     14 C05         3.0427   -2.0839  -19.3683 C.ar      1 032        -0.1537
     15 C06         3.1338   -1.8449  -18.0013 C.ar      1 032         0.5390
     16 C07         6.6101   -3.2731  -19.8724 C.ar      1 032        -0.0284
     17 C18        -0.2943   -1.6376  -21.3132 C.ar      1 032        -0.2025
     18 C23        -2.1239   -0.3350  -22.2017 C.ar      1 032        -0.1547
     19 F25         0.0962    0.3979  -22.4802 F         1 032        -0.1260
     20 F26        -0.7653   -3.6760  -20.1895 F         1 032        -0.1183
     21 N27        -3.5018   -3.3744  -20.5074 N.pl3     1 032        -0.7673
     22 S28        -4.5457   -2.9434  -19.2511 S.o2      1 032         1.4619
     23 O29        -5.3833   -4.1027  -18.9953 O.2       1 032        -0.6431
     24 O30        -5.1775   -1.6766  -19.5745 O.2       1 032        -0.6431
     25 C31        -3.4535   -2.6981  -17.8454 C.3       1 032        -0.3355
     26 C32        -2.7597   -3.9752  -17.3910 C.3       1 032        -0.0513
     27 C33        -1.8335   -3.7119  -16.2138 C.3       1 032        -0.0894
     28 C08         6.5946   -4.3892  -20.7285 C.ar      1 032        -0.1125
     29 C09         7.7702   -4.8677  -21.3179 C.ar      1 032        -0.1225
     30 C11         9.0259   -3.1269  -20.2175 C.ar      1 032        -0.1225
     31 C12         7.8484   -2.6516  -19.6292 C.ar      1 032        -0.1125
     32 CL13       10.4284   -4.8201  -21.7832 Cl        1 032        -0.0950
     33 H15         0.0404   -0.9619  -18.4663 H         1 032         0.1778
     34 H22        -4.0992   -1.1219  -21.8846 H         1 032         0.1861
     35 H02         6.1653   -2.6387  -17.2493 H         1 032         0.0286
     36 H04         4.1915   -2.7590  -21.0774 H         1 032         0.1687
     37 H23        -2.4761    0.5399  -22.7423 H         1 032         0.1643
     38 HN27       -3.0908   -4.3010  -20.3485 H         1 032         0.4697
     39 H31        -2.7367   -1.9164  -18.1149 H         1 032         0.1173
     40 H31A       -4.0854   -2.3054  -17.0407 H         1 032         0.1173
     41 H32        -3.5046   -4.7247  -17.1000 H         1 032         0.0598
     42 H32A       -2.1784   -4.4114  -18.2093 H         1 032         0.0598
     43 H33        -1.3476   -4.6407  -15.8986 H         1 032         0.0394
     44 H33A       -2.3884   -3.3119  -15.3592 H         1 032         0.0394
     45 H33B       -1.0517   -2.9946  -16.4830 H         1 032         0.0394
     46 H08         5.6604   -4.9091  -20.9391 H         1 032         0.1419
     47 H09         7.7267   -5.7344  -21.9731 H         1 032         0.1496
     48 H11         9.9680   -2.6238  -20.0128 H         1 032         0.1496
     49 H12         7.9100   -1.7756  -18.9840 H         1 032         0.1419
     50 O19         1.8340   -2.0688  -22.1220 O.2       1 032        -0.5166
     51 H18         1.7101   -1.1299  -16.6155 H         1 032         0.4726
@<TRIPOS>BOND
     1    1   29 ar
     2    1   30 ar
     3    1   32 1
     4    2   12 ar
     5    2   13 ar
     6    2   33 1
     7    3   13 1
     8    3   17 1
     9    3   50 2
    10    4    5 ar
    11    4   17 ar
    12    4   20 1
    13    5    6 ar
    14    5   21 1
    15    6   18 ar
    16    6   34 1
    17    7   17 ar
    18    7   18 ar
    19    7   19 1
    20    8    9 ar
    21    8   11 ar
    22    8   16 1
    23    9   10 ar
    24    9   35 1
    25   10   15 ar
    26   11   14 ar
    27   11   36 1
    28   12   15 ar
    29   12   51 1
    30   13   14 ar
    31   14   15 ar
    32   16   28 ar
    33   16   31 ar
    34   18   37 1
    35   21   22 1
    36   21   38 1
    37   22   23 2
    38   22   24 2
    39   22   25 1
    40   25   26 1
    41   25   39 1
    42   25   40 1
    43   26   27 1
    44   26   41 1
    45   26   42 1
    46   27   43 1
    47   27   44 1
    48   27   45 1
    49   28   29 ar
    50   28   46 1
    51   29   47 1
    52   30   31 ar
    53   30   48 1
    54   31   49 1
@<TRIPOS>SUBSTRUCTURE
     1 032         1 GROUP   0 A     ****
@<TRIPOS>MOLECULE
~{N}-[3-[5-(4-chlorophenyl)-1~{H}-pyrrolo[2,3-b]pyridine-3-carbonyl]-2,4-difluoro-phenyl]propane-1-sulfonamide
   51    54     1     0     0
SMALL
USER_CHARGES

@<TRIPOS>ATOM
      1 C10         8.9836   -4.2284  -21.0688 C.ar      1 032         0.0192
      2 C15         1.0519   -1.3252  -18.6254 C.ar      1 032         0.0862
      3 C17         1.1520   -1.8286  -21.1233 C.2       1 032         0.6286
      4 C20        -1.1965   -2.5783  -20.8304 C.ar      1 032         0.1493
      5 C21        -2.5747   -2.4017  -21.0157 C.ar      1 032         0.1074
      6 C22        -3.0343   -1.2769  -21.7057 C.ar      1 032        -0.1332
      7 C24        -0.7569   -0.5176  -21.9982 C.ar      1 032         0.1450
      8 C01         5.3732   -2.7761  -19.2530 C.ar      1 032        -0.1688
      9 C02         5.2958   -2.4945  -17.8845 C.ar      1 032         0.4227
     10 N03         4.2108   -2.0333  -17.2054 N.ar      1 032        -0.6608
     11 C04         4.2070   -2.5628  -20.0069 C.ar      1 032        -0.0332
     12 N14         1.9222   -1.3975  -17.5650 N.pl3     1 032        -0.6640
     13 C16         1.7087   -1.7530  -19.7715 C.ar      1 032        -0.2270
     14 C05         3.0459   -2.0852  -19.3652 C.ar      1 032        -0.1531
     15 C06         3.1367   -1.8540  -17.9968 C.ar      1 032         0.5395
     16 C07         6.6129   -3.2735  -19.8755 C.ar      1 032        -0.0283
     17 C18        -0.2910   -1.6330  -21.3086 C.ar      1 032        -0.2023
     18 C23        -2.1242   -0.3348  -22.1964 C.ar      1 032        -0.1555
     19 F25         0.0936    0.4062  -22.4713 F         1 032        -0.1253
     20 F26        -0.7565   -3.6760  -20.1910 F         1 032        -0.1190
     21 N27        -3.4927   -3.3836  -20.5107 N.pl3     1 032        -0.7667
     22 S28        -4.5497   -2.9590  -19.2635 S.o2      1 032         1.4597
     23 O29        -5.3755   -4.1269  -19.0079 O.2       1 032        -0.6427
     24 O30        -5.1941   -1.7012  -19.5967 O.2       1 032        -0.6427
     25 C31        -3.4699   -2.6948  -17.8517 C.3       1 032        -0.3342
     26 C32        -2.7619   -3.9609  -17.3886 C.3       1 032        -0.0520
     27 C33        -1.8495   -3.6818  -16.2042 C.3       1 032        -0.0891
     28 C08         6.5960   -4.3816  -20.7419 C.ar      1 032        -0.1123
     29 C09         7.7712   -4.8572  -21.3344 C.ar      1 032        -0.1225
     30 C11         9.0295   -3.1295  -20.2165 C.ar      1 032        -0.1225
     31 C12         7.8523   -2.6570  -19.6252 C.ar      1 032        -0.1123
     32 CL13       10.4300   -4.8108  -21.7967 Cl        1 032        -0.0956
     33 H15         0.0436   -0.9678  -18.4577 H         1 032         0.1778
     34 H22        -4.0970   -1.1293  -21.8844 H         1 032         0.1851
     35 H02         6.1676   -2.6538  -17.2486 H         1 032         0.0284
     36 H04         4.1947   -2.7508  -21.0778 H         1 032         0.1686
     37 H23        -2.4787    0.5398  -22.7361 H         1 032         0.1637
     38 H31        -2.7618   -1.9046  -18.1194 H         1 032         0.1170
     39 H31A       -4.1120   -2.3077  -17.0524 H         1 032         0.1170
     40 H32        -3.4983   -4.7204  -17.1023 H         1 032         0.0599
     41 H32A       -2.1674   -4.3902  -18.2010 H         1 032         0.0599
     42 H33        -1.3521   -4.6026  -15.8838 H         1 032         0.0394
     43 H33A       -2.4177   -3.2893  -15.3549 H         1 032         0.0394
     44 H33B       -1.0767   -2.9528  -16.4679 H         1 032         0.0394
     45 H08         5.6610   -4.8977  -20.9584 H         1 032         0.1416
     46 H09         7.7265   -5.7177  -21.9978 H         1 032         0.1498
     47 H11         9.9724   -2.6303  -20.0061 H         1 032         0.1498
     48 H12         7.9152   -1.7871  -18.9720 H         1 032         0.1416
     49 O19         1.8390   -2.0519  -22.1192 O.2       1 032        -0.5157
     50 H18         1.7129   -1.1463  -16.6074 H         1 032         0.4731
     51 HN27       -3.0758   -4.3068  -20.3470 H         1 032         0.4695
@<TRIPOS>BOND
     1    1   29 ar
     2    1   30 ar
     3    1   32 1
     4    2   12 ar
     5    2   13 ar
     6    2   33 1
     7    3   13 1
     8    3   17 1
     9    3   49 2
    10    4    5 ar
    11    4   17 ar
    12    4   20 1
    13    5    6 ar
    14    5   21 1
    15    6   18 ar
    16    6   34 1
    17    7   17 ar
    18    7   18 ar
    19    7   19 1
    20    8    9 ar
    21    8   11 ar
    22    8   16 1
    23    9   10 ar
    24    9   35 1
    25   10   15 ar
    26   11   14 ar
    27   11   36 1
    28   12   15 ar
    29   12   50 1
    30   13   14 ar
    31   14   15 ar
    32   16   28 ar
    33   16   31 ar
    34   18   37 1
    35   21   22 1
    36   21   51 1
    37   22   23 2
    38   22   24 2
    39   22   25 1
    40   25   26 1
    41   25   38 1
    42   25   39 1
    43   26   27 1
    44   26   40 1
    45   26   41 1
    46   27   42 1
    47   27   43 1
    48   27   44 1
    49   28   29 ar
    50   28   45 1
    51   29   46 1
    52   30   31 ar
    53   30   47 1
    54   31   48 1
@<TRIPOS>SUBSTRUCTURE
     1 032         1 GROUP   0 A     ****
@<TRIPOS>MOLECULE
~{N}-[3-[5-(4-chlorophenyl)-7,7~{a}-dihydro-1~{H}-pyrrolo[2,3-b]pyridine-3-carbonyl]-2,4-difluoro-phenyl]propane-1-sulfonamide
   53    56     1     0     0
SMALL
USER_CHARGES

@<TRIPOS>ATOM
      1 C10         8.6059   -4.6999  -21.0293 C.ar      1 032         0.0156
      2 C15         1.1482   -0.8787  -18.6339 C.2       1 032         0.0787
      3 C17         1.2180   -1.2819  -21.1376 C.2       1 032         0.6206
      4 C20        -1.0148   -2.3434  -20.8853 C.ar      1 032         0.1747
      5 C21        -2.4088   -2.3224  -21.0371 C.ar      1 032         0.0677
      6 C22        -3.0173   -1.2059  -21.6168 C.ar      1 032        -0.0736
      7 C24        -0.8570   -0.1477  -21.8652 C.ar      1 032         0.1858
      8 C01         5.2478   -2.7432  -19.2430 C.2       1 032        -0.1383
      9 C02         5.2063   -2.5883  -17.8985 C.2       1 032         0.0697
     10 N03         4.1453   -1.9734  -17.2336 N.pl3     1 032        -0.7089
     11 C04         4.0695   -2.3156  -20.0074 C.2       1 032        -0.0593
     12 N14         1.9759   -0.9321  -17.5174 N.pl3     1 032        -0.7372
     13 C16         1.7837   -1.2305  -19.7655 C.2       1 032        -0.2248
     14 C05         3.1572   -1.5393  -19.3964 C.2       1 032        -0.1196
     15 C06         3.3525   -1.0184  -17.9757 C.3       1 032         0.4655
     16 C07         6.4075   -3.4180  -19.8551 C.ar      1 032        -0.0250
     17 C18        -0.2421   -1.2542  -21.2867 C.ar      1 032        -0.2320
     18 C23        -2.2404   -0.1182  -22.0297 C.ar      1 032        -0.1841
     19 F25        -0.1359    0.9136  -22.2572 F         1 032        -0.1198
     20 F26        -0.4293   -3.4313  -20.3544 F         1 032        -0.1115
     21 N27        -3.1882   -3.4529  -20.6163 N.pl3     1 032        -0.7750
     22 S28        -4.2753   -3.2781  -19.3349 S.o2      1 032         1.4525
     23 O29        -4.9418   -4.5601  -19.1822 O.2       1 032        -0.6451
     24 O30        -5.0790   -2.0889  -19.5542 O.2       1 032        -0.6451
     25 C31        -3.2192   -3.0022  -17.9074 C.3       1 032        -0.3302
     26 C32        -2.3487   -4.2025  -17.5603 C.3       1 032        -0.0491
     27 C33        -1.4616   -3.9125  -16.3593 C.3       1 032        -0.0909
     28 C08         6.2435   -4.6357  -20.5308 C.ar      1 032        -0.1143
     29 C09         7.3402   -5.2759  -21.1160 C.ar      1 032        -0.1247
     30 C11         8.7845   -3.4893  -20.3632 C.ar      1 032        -0.1247
     31 C12         7.6876   -2.8496  -19.7780 C.ar      1 032        -0.1143
     32 CL13        9.9562   -5.4879  -21.7496 Cl        1 032        -0.0970
     33 H15         0.1242   -0.5515  -18.5006 H         1 032         0.1668
     34 H22        -4.0937   -1.1754  -21.7702 H         1 032         0.1816
     35 H02         6.0010   -2.9274  -17.2362 H         1 032         0.1520
     36 H04         3.9031   -2.7421  -20.9910 H         1 032         0.1561
     37 H23        -2.7113    0.7506  -22.4825 H         1 032         0.1649
     38 H31        -2.6214   -2.1072  -18.1059 H         1 032         0.1214
     39 H31A       -3.8945   -2.7724  -17.0755 H         1 032         0.1214
     40 H32        -2.9779   -5.0723  -17.3393 H         1 032         0.0508
     41 H32A       -1.7165   -4.4794  -18.4096 H         1 032         0.0508
     42 H33        -0.8469   -4.7864  -16.1222 H         1 032         0.0404
     43 H33A       -2.0622   -3.6699  -15.4769 H         1 032         0.0404
     44 H33B       -0.7912   -3.0709  -16.5617 H         1 032         0.0404
     45 H08         5.2609   -5.0996  -20.6021 H         1 032         0.1396
     46 H09         7.1957   -6.2208  -21.6343 H         1 032         0.1465
     47 H11         9.7699   -3.0347  -20.2943 H         1 032         0.1465
     48 H12         7.8405   -1.9010  -19.2655 H         1 032         0.1396
     49 O19         1.9206   -1.3338  -22.1446 O.2       1 032        -0.4966
     50 H18         1.8229   -0.1643  -16.8617 H         1 032         0.4103
     51 H51         4.3990   -1.6161  -16.3121 H         1 032         0.4100
     52 H06         3.8228   -0.0263  -17.9886 H         1 032         0.0636
     53 HN27       -2.6567   -4.3270  -20.5374 H         1 032         0.4673
@<TRIPOS>BOND
     1    1   29 ar
     2    1   30 ar
     3    1   32 1
     4    2   12 1
     5    2   13 2
     6    2   33 1
     7    3   13 1
     8    3   17 1
     9    3   49 2
    10    4    5 ar
    11    4   17 ar
    12    4   20 1
    13    5    6 ar
    14    5   21 1
    15    6   18 ar
    16    6   34 1
    17    7   17 ar
    18    7   18 ar
    19    7   19 1
    20    8    9 2
    21    8   11 1
    22    8   16 1
    23    9   10 1
    24    9   35 1
    25   10   15 1
    26   10   51 1
    27   11   14 2
    28   11   36 1
    29   12   15 1
    30   12   50 1
    31   13   14 1
    32   14   15 1
    33   15   52 1
    34   16   28 ar
    35   16   31 ar
    36   18   37 1
    37   21   22 1
    38   21   53 1
    39   22   23 2
    40   22   24 2
    41   22   25 1
    42   25   26 1
    43   25   38 1
    44   25   39 1
    45   26   27 1
    46   26   40 1
    47   26   41 1
    48   27   42 1
    49   27   43 1
    50   27   44 1
    51   28   29 ar
    52   28   45 1
    53   29   46 1
    54   30   31 ar
    55   30   47 1
    56   31   48 1
@<TRIPOS>SUBSTRUCTURE
     1 032         1 GROUP   0 A     ****
