@<TRIPOS>MOLECULE
~{N}1-[4-[(6,7-dimethoxy-4-quinolyl)oxy]phenyl]-~{N}1'-(4-fluorophenyl)cyclopropane-1,1-dicarboxamide
   61    65     1     0     0
SMALL
USER_CHARGES

@<TRIPOS>ATOM
      1 C1          9.8501   -3.0378   -9.6145 C.3       1 CAB         0.1189
      2 O1          9.0703   -3.7100  -10.5966 O.3       1 CAB        -0.3424
      3 C2          7.7844   -4.0054  -10.2612 C.ar      1 CAB         0.0732
      4 C3          6.7732   -3.0889  -10.5347 C.ar      1 CAB        -0.0984
      5 C4          5.4406   -3.3779  -10.1950 C.ar      1 CAB        -0.1563
      6 C5          4.4032   -2.4735  -10.4588 C.ar      1 CAB         0.1740
      7 C6          3.0975   -2.7884  -10.1109 C.ar      1 CAB        -0.3329
      8 C7          2.8750   -4.0087   -9.5058 C.ar      1 CAB         0.4423
      9 N1          3.8471   -4.9092   -9.2339 N.ar      1 CAB        -0.6779
     10 C8          5.1133   -4.6008   -9.5726 C.ar      1 CAB         0.4159
     11 C9          6.1443   -5.4990   -9.3109 C.ar      1 CAB        -0.1864
     12 C10         7.4692   -5.2118   -9.6486 C.ar      1 CAB         0.0998
     13 O2          8.4424   -6.1240   -9.3714 O.3       1 CAB        -0.3429
     14 C11         8.7304   -7.0910  -10.3794 C.3       1 CAB         0.1181
     15 O3          4.6391   -1.2702  -11.0576 O.3       1 CAB        -0.2423
     16 C12         4.2980   -0.1281  -10.3559 C.ar      1 CAB         0.0431
     17 C13         3.6228    0.9095  -10.9987 C.ar      1 CAB        -0.1010
     18 C14         3.2790    2.0615  -10.2914 C.ar      1 CAB        -0.1609
     19 C15         3.6104    2.1759   -8.9413 C.ar      1 CAB         0.0747
     20 C16         4.2857    1.1383   -8.2986 C.ar      1 CAB        -0.1609
     21 C17         4.6295   -0.0137   -9.0059 C.ar      1 CAB        -0.1010
     22 N2          3.2697    3.3298   -8.2348 N.am      1 CAB        -0.4537
     23 C18         3.5163    3.6235   -6.8870 C.2       1 CAB         0.7155
     24 O4          4.0872    2.9173   -6.0622 O.2       1 CAB        -0.5685
     25 C19         2.9865    4.9828   -6.5049 C.3       1 CAB        -0.2944
     26 C20         3.9742    5.9101   -5.8507 C.3       1 CAB        -0.0968
     27 C21         3.5577    6.1471   -7.2676 C.3       1 CAB        -0.0968
     28 C22         1.5846    5.0440   -6.0832 C.2       1 CAB         0.7116
     29 O5          0.7336    5.7360   -6.6812 O.2       1 CAB        -0.5801
     30 N3          1.3226    4.2533   -4.9516 N.am      1 CAB        -0.4690
     31 C23         0.1029    4.0598   -4.2607 C.ar      1 CAB         0.0527
     32 C24         0.0578    3.2221   -3.1463 C.ar      1 CAB        -0.1421
     33 C25        -1.1446    3.0308   -2.4658 C.ar      1 CAB        -0.1387
     34 C26        -2.3020    3.6773   -2.8996 C.ar      1 CAB         0.1028
     35 C27        -2.2569    4.5150   -4.0140 C.ar      1 CAB        -0.1387
     36 C28        -1.0545    4.7062   -4.6946 C.ar      1 CAB        -0.1421
     37 F1         -3.4573    3.4915   -2.2477 F         1 CAB        -0.1388
     38 H1         10.8551   -2.8604  -10.0051 H         1 CAB         0.0438
     39 H2          9.9019   -3.6477   -8.7091 H         1 CAB         0.0438
     40 H3          9.3784   -2.0806   -9.3802 H         1 CAB         0.0438
     41 H4          7.0349   -2.1481  -11.0148 H         1 CAB         0.1631
     42 H5          2.2779   -2.1057  -10.3049 H         1 CAB         0.1573
     43 H6          1.8745   -4.3093   -9.2123 H         1 CAB         0.0235
     44 H7          5.9163   -6.4501   -8.8317 H         1 CAB         0.1653
     45 H8          9.5219   -7.7494  -10.0235 H         1 CAB         0.0442
     46 H9          9.0405   -6.5753  -11.2876 H         1 CAB         0.0442
     47 H10         7.8271   -7.6686  -10.5715 H         1 CAB         0.0442
     48 H11         3.3613    0.8257  -12.0500 H         1 CAB         0.1532
     49 H12         2.7536    2.8644  -10.8024 H         1 CAB         0.1570
     50 H13         4.5494    1.2171   -7.2470 H         1 CAB         0.1570
     51 H14         5.1550   -0.8187   -8.4993 H         1 CAB         0.1532
     52 H15         2.7772    4.0591   -8.7633 H         1 CAB         0.3277
     53 H16         3.6319    6.6145   -5.1013 H         1 CAB         0.0919
     54 H17         4.9773    5.5380   -5.6767 H         1 CAB         0.0919
     55 H18         2.9352    7.0107   -7.4712 H         1 CAB         0.0919
     56 H19         4.2805    5.9343   -8.0467 H         1 CAB         0.0919
     57 H20         2.1228    3.7487   -4.5759 H         1 CAB         0.3171
     58 H21         0.9536    2.7133   -2.7991 H         1 CAB         0.1544
     59 H22        -1.1808    2.3786   -1.5982 H         1 CAB         0.1528
     60 H23        -3.1586    5.0178   -4.3511 H         1 CAB         0.1528
     61 H24        -1.0312    5.3614   -5.5618 H         1 CAB         0.1544
@<TRIPOS>BOND
     1    1    2 1
     2    2    3 1
     3    3   12 ar
     4    3    4 ar
     5    4    5 ar
     6    5   10 ar
     7    5    6 ar
     8    6    7 ar
     9    7    8 ar
    10    8    9 ar
    11    9   10 ar
    12   10   11 ar
    13   11   12 ar
    14   12   13 1
    15   13   14 1
    16    6   15 1
    17   15   16 1
    18   16   21 ar
    19   16   17 ar
    20   17   18 ar
    21   18   19 ar
    22   19   20 ar
    23   20   21 ar
    24   19   22 1
    25   22   23 am
    26   23   24 2
    27   23   25 1
    28   25   27 1
    29   25   26 1
    30   26   27 1
    31   25   28 1
    32   28   29 2
    33   28   30 am
    34   30   31 1
    35   31   36 ar
    36   31   32 ar
    37   32   33 ar
    38   33   34 ar
    39   34   35 ar
    40   35   36 ar
    41   34   37 1
    42    1   38 1
    43    1   39 1
    44    1   40 1
    45    4   41 1
    46    7   42 1
    47    8   43 1
    48   11   44 1
    49   14   45 1
    50   14   46 1
    51   14   47 1
    52   17   48 1
    53   18   49 1
    54   20   50 1
    55   21   51 1
    56   22   52 1
    57   26   53 1
    58   26   54 1
    59   27   55 1
    60   27   56 1
    61   30   57 1
    62   32   58 1
    63   33   59 1
    64   35   60 1
    65   36   61 1
@<TRIPOS>SUBSTRUCTURE
     1 CAB         1 GROUP 0 A     ****
