~{N}1-[4-[(6,7-dimethoxy-4-quinolyl)oxy]phenyl]-~{N}1'-(4-fluorophenyl)cyclopropane-1,1-dicarboxamide
                    3D
 Structure written by MMmdl.
 62 66  0  0  1  0            999 V2000
    9.8501   -3.0378   -9.6145 C   0  0  0  0  0  0
    9.0703   -3.7100  -10.5966 O   0  0  0  0  0  0
    7.7844   -4.0054  -10.2612 C   0  0  0  0  0  0
    6.7732   -3.0889  -10.5347 C   0  0  0  0  0  0
    5.4406   -3.3779  -10.1950 C   0  0  0  0  0  0
    4.4032   -2.4735  -10.4588 C   0  0  0  0  0  0
    3.0975   -2.7884  -10.1109 C   0  0  0  0  0  0
    2.8750   -4.0087   -9.5058 C   0  0  0  0  0  0
    3.8471   -4.9092   -9.2339 N   0  3  0  0  0  0
    5.1133   -4.6008   -9.5726 C   0  0  0  0  0  0
    6.1443   -5.4990   -9.3109 C   0  0  0  0  0  0
    7.4692   -5.2118   -9.6486 C   0  0  0  0  0  0
    8.4424   -6.1240   -9.3714 O   0  0  0  0  0  0
    8.7304   -7.0910  -10.3794 C   0  0  0  0  0  0
    4.6391   -1.2702  -11.0576 O   0  0  0  0  0  0
    4.2980   -0.1281  -10.3559 C   0  0  0  0  0  0
    3.6228    0.9095  -10.9987 C   0  0  0  0  0  0
    3.2790    2.0615  -10.2914 C   0  0  0  0  0  0
    3.6104    2.1759   -8.9413 C   0  0  0  0  0  0
    4.2857    1.1383   -8.2986 C   0  0  0  0  0  0
    4.6295   -0.0137   -9.0059 C   0  0  0  0  0  0
    3.2697    3.3298   -8.2348 N   0  0  0  0  0  0
    3.5163    3.6235   -6.8870 C   0  0  0  0  0  0
    4.0872    2.9173   -6.0622 O   0  0  0  0  0  0
    2.9865    4.9828   -6.5049 C   0  0  0  0  0  0
    3.9742    5.9101   -5.8507 C   0  0  0  0  0  0
    3.5577    6.1471   -7.2676 C   0  0  0  0  0  0
    1.5846    5.0440   -6.0832 C   0  0  0  0  0  0
    0.7336    5.7360   -6.6812 O   0  0  0  0  0  0
    1.3226    4.2533   -4.9516 N   0  0  0  0  0  0
    0.1029    4.0598   -4.2607 C   0  0  0  0  0  0
    0.0578    3.2221   -3.1463 C   0  0  0  0  0  0
   -1.1446    3.0308   -2.4658 C   0  0  0  0  0  0
   -2.3020    3.6773   -2.8996 C   0  0  0  0  0  0
   -2.2569    4.5150   -4.0140 C   0  0  0  0  0  0
   -1.0545    4.7062   -4.6946 C   0  0  0  0  0  0
   -3.4573    3.4915   -2.2477 F   0  0  0  0  0  0
   10.8616   -2.8596  -10.0084 H   0  0  0  0  0  0
    9.9135   -3.6587   -8.7087 H   0  0  0  0  0  0
    9.3781   -2.0755   -9.3672 H   0  0  0  0  0  0
    7.0349   -2.1481  -11.0148 H   0  0  0  0  0  0
    2.2779   -2.1057  -10.3049 H   0  0  0  0  0  0
    1.8745   -4.3093   -9.2123 H   0  0  0  0  0  0
    5.9163   -6.4501   -8.8317 H   0  0  0  0  0  0
    9.5293   -7.7604  -10.0277 H   0  0  0  0  0  0
    9.0583   -6.5787  -11.2960 H   0  0  0  0  0  0
    7.8258   -7.6796  -10.5919 H   0  0  0  0  0  0
    3.3613    0.8257  -12.0500 H   0  0  0  0  0  0
    2.7536    2.8644  -10.8024 H   0  0  0  0  0  0
    4.5494    1.2171   -7.2470 H   0  0  0  0  0  0
    5.1550   -0.8187   -8.4993 H   0  0  0  0  0  0
    2.7397    4.1492   -8.7425 H   0  0  0  0  0  0
    3.5106    6.3767   -4.9690 H   0  0  0  0  0  0
    4.8620    5.3399   -5.5396 H   0  0  0  0  0  0
    4.0934    5.7772   -8.1543 H   0  0  0  0  0  0
    2.7420    6.8140   -7.5837 H   0  0  0  0  0  0
    2.1339    3.6758   -4.4843 H   0  0  0  0  0  0
    0.9536    2.7133   -2.7991 H   0  0  0  0  0  0
   -1.1808    2.3786   -1.5982 H   0  0  0  0  0  0
   -3.1586    5.0178   -4.3511 H   0  0  0  0  0  0
   -1.0312    5.3614   -5.5618 H   0  0  0  0  0  0
    3.5930   -5.8632   -8.7487 H   0  0  0  0  0  0
  1  2  1  0  0  0
  1 38  1  0  0  0
  1 39  1  0  0  0
  1 40  1  0  0  0
  2  3  1  0  0  0
  3 12  2  0  0  0
  3  4  1  0  0  0
  4  5  2  0  0  0
  4 41  1  0  0  0
  5 10  1  0  0  0
  5  6  1  0  0  0
  6  7  2  0  0  0
  6 15  1  0  0  0
  7  8  1  0  0  0
  7 42  1  0  0  0
  8  9  2  0  0  0
  8 43  1  0  0  0
  9 10  1  0  0  0
  9 62  1  0  0  0
 10 11  2  0  0  0
 11 12  1  0  0  0
 11 44  1  0  0  0
 12 13  1  0  0  0
 13 14  1  0  0  0
 14 45  1  0  0  0
 14 46  1  0  0  0
 14 47  1  0  0  0
 15 16  1  0  0  0
 16 21  2  0  0  0
 16 17  1  0  0  0
 17 18  2  0  0  0
 17 48  1  0  0  0
 18 19  1  0  0  0
 18 49  1  0  0  0
 19 20  2  0  0  0
 19 22  1  0  0  0
 20 21  1  0  0  0
 20 50  1  0  0  0
 21 51  1  0  0  0
 22 23  1  0  0  0
 22 52  1  0  0  0
 23 24  2  0  0  0
 23 25  1  0  0  0
 25 27  1  0  0  0
 25 26  1  0  0  0
 25 28  1  0  0  0
 26 27  1  0  0  0
 26 53  1  0  0  0
 26 54  1  0  0  0
 27 55  1  0  0  0
 27 56  1  0  0  0
 28 29  2  0  0  0
 28 30  1  0  0  0
 30 31  1  0  0  0
 30 57  1  0  0  0
 31 36  2  0  0  0
 31 32  1  0  0  0
 32 33  2  0  0  0
 32 58  1  0  0  0
 33 34  1  0  0  0
 33 59  1  0  0  0
 34 35  2  0  0  0
 34 37  1  0  0  0
 35 36  1  0  0  0
 35 60  1  0  0  0
 36 61  1  0  0  0
M  CHG  1   9   1
M  END
> <s_m_source_file>
C:\GitHub\mcce-charges\epik_inhibitors\output-new\Cabozantinib\Cabozantinib-input.mol2

> <i_m_source_file_index>
1

> <r_lp_tautomer_probability>
1

> <r_epik_Ionization_Penalty>
  0.2030

> <r_epik_Ionization_Penalty_Charging>
  0.2030

> <r_epik_Ionization_Penalty_Neutral>
  0.0000

> <r_epik_State_Penalty>
  0.1929

> <r_epik_Charging_Adjusted_Penalty>
0.39593030704021

> <i_epik_Tot_Q>
1

> <i_epik_Tot_abs_Q>
1

$$$$
~{N}1-[4-[(6,7-dimethoxy-4-quinolyl)oxy]phenyl]-~{N}1'-(4-fluorophenyl)cyclopropane-1,1-dicarboxamide
                    3D
 Structure written by MMmdl.
 61 65  0  0  1  0            999 V2000
    9.8501   -3.0378   -9.6145 C   0  0  0  0  0  0
    9.0703   -3.7100  -10.5966 O   0  0  0  0  0  0
    7.7844   -4.0054  -10.2612 C   0  0  0  0  0  0
    6.7732   -3.0889  -10.5347 C   0  0  0  0  0  0
    5.4406   -3.3779  -10.1950 C   0  0  0  0  0  0
    4.4032   -2.4735  -10.4588 C   0  0  0  0  0  0
    3.0975   -2.7884  -10.1109 C   0  0  0  0  0  0
    2.8750   -4.0087   -9.5058 C   0  0  0  0  0  0
    3.8471   -4.9092   -9.2339 N   0  0  0  0  0  0
    5.1133   -4.6008   -9.5726 C   0  0  0  0  0  0
    6.1443   -5.4990   -9.3109 C   0  0  0  0  0  0
    7.4692   -5.2118   -9.6486 C   0  0  0  0  0  0
    8.4424   -6.1240   -9.3714 O   0  0  0  0  0  0
    8.7304   -7.0910  -10.3794 C   0  0  0  0  0  0
    4.6391   -1.2702  -11.0576 O   0  0  0  0  0  0
    4.2980   -0.1281  -10.3559 C   0  0  0  0  0  0
    3.6228    0.9095  -10.9987 C   0  0  0  0  0  0
    3.2790    2.0615  -10.2914 C   0  0  0  0  0  0
    3.6104    2.1759   -8.9413 C   0  0  0  0  0  0
    4.2857    1.1383   -8.2986 C   0  0  0  0  0  0
    4.6295   -0.0137   -9.0059 C   0  0  0  0  0  0
    3.2697    3.3298   -8.2348 N   0  0  0  0  0  0
    3.5163    3.6235   -6.8870 C   0  0  0  0  0  0
    4.0872    2.9173   -6.0622 O   0  0  0  0  0  0
    2.9865    4.9828   -6.5049 C   0  0  0  0  0  0
    3.9742    5.9101   -5.8507 C   0  0  0  0  0  0
    3.5577    6.1471   -7.2676 C   0  0  0  0  0  0
    1.5846    5.0440   -6.0832 C   0  0  0  0  0  0
    0.7336    5.7360   -6.6812 O   0  0  0  0  0  0
    1.3226    4.2533   -4.9516 N   0  0  0  0  0  0
    0.1029    4.0598   -4.2607 C   0  0  0  0  0  0
    0.0578    3.2221   -3.1463 C   0  0  0  0  0  0
   -1.1446    3.0308   -2.4658 C   0  0  0  0  0  0
   -2.3020    3.6773   -2.8996 C   0  0  0  0  0  0
   -2.2569    4.5150   -4.0140 C   0  0  0  0  0  0
   -1.0545    4.7062   -4.6946 C   0  0  0  0  0  0
   -3.4573    3.4915   -2.2477 F   0  0  0  0  0  0
   10.8616   -2.8596  -10.0084 H   0  0  0  0  0  0
    9.9135   -3.6587   -8.7087 H   0  0  0  0  0  0
    9.3781   -2.0755   -9.3672 H   0  0  0  0  0  0
    7.0349   -2.1481  -11.0148 H   0  0  0  0  0  0
    2.2779   -2.1057  -10.3049 H   0  0  0  0  0  0
    1.8745   -4.3093   -9.2123 H   0  0  0  0  0  0
    5.9163   -6.4501   -8.8317 H   0  0  0  0  0  0
    9.5293   -7.7604  -10.0277 H   0  0  0  0  0  0
    9.0583   -6.5787  -11.2960 H   0  0  0  0  0  0
    7.8258   -7.6796  -10.5919 H   0  0  0  0  0  0
    3.3613    0.8257  -12.0500 H   0  0  0  0  0  0
    2.7536    2.8644  -10.8024 H   0  0  0  0  0  0
    4.5494    1.2171   -7.2470 H   0  0  0  0  0  0
    5.1550   -0.8187   -8.4993 H   0  0  0  0  0  0
    2.7397    4.1492   -8.7425 H   0  0  0  0  0  0
    3.5106    6.3767   -4.9690 H   0  0  0  0  0  0
    4.8620    5.3399   -5.5396 H   0  0  0  0  0  0
    4.0934    5.7772   -8.1543 H   0  0  0  0  0  0
    2.7420    6.8140   -7.5837 H   0  0  0  0  0  0
    2.1339    3.6758   -4.4843 H   0  0  0  0  0  0
    0.9536    2.7133   -2.7991 H   0  0  0  0  0  0
   -1.1808    2.3786   -1.5982 H   0  0  0  0  0  0
   -3.1586    5.0178   -4.3511 H   0  0  0  0  0  0
   -1.0312    5.3614   -5.5618 H   0  0  0  0  0  0
  1  2  1  0  0  0
  1 38  1  0  0  0
  1 39  1  0  0  0
  1 40  1  0  0  0
  2  3  1  0  0  0
  3 12  2  0  0  0
  3  4  1  0  0  0
  4  5  2  0  0  0
  4 41  1  0  0  0
  5 10  1  0  0  0
  5  6  1  0  0  0
  6  7  2  0  0  0
  6 15  1  0  0  0
  7  8  1  0  0  0
  7 42  1  0  0  0
  8  9  2  0  0  0
  8 43  1  0  0  0
  9 10  1  0  0  0
 10 11  2  0  0  0
 11 12  1  0  0  0
 11 44  1  0  0  0
 12 13  1  0  0  0
 13 14  1  0  0  0
 14 45  1  0  0  0
 14 46  1  0  0  0
 14 47  1  0  0  0
 15 16  1  0  0  0
 16 21  2  0  0  0
 16 17  1  0  0  0
 17 18  2  0  0  0
 17 48  1  0  0  0
 18 19  1  0  0  0
 18 49  1  0  0  0
 19 20  2  0  0  0
 19 22  1  0  0  0
 20 21  1  0  0  0
 20 50  1  0  0  0
 21 51  1  0  0  0
 22 23  1  0  0  0
 22 52  1  0  0  0
 23 24  2  0  0  0
 23 25  1  0  0  0
 25 27  1  0  0  0
 25 26  1  0  0  0
 25 28  1  0  0  0
 26 27  1  0  0  0
 26 53  1  0  0  0
 26 54  1  0  0  0
 27 55  1  0  0  0
 27 56  1  0  0  0
 28 29  2  0  0  0
 28 30  1  0  0  0
 30 31  1  0  0  0
 30 57  1  0  0  0
 31 36  2  0  0  0
 31 32  1  0  0  0
 32 33  2  0  0  0
 32 58  1  0  0  0
 33 34  1  0  0  0
 33 59  1  0  0  0
 34 35  2  0  0  0
 34 37  1  0  0  0
 35 36  1  0  0  0
 35 60  1  0  0  0
 36 61  1  0  0  0
M  END
> <s_m_source_file>
C:\GitHub\mcce-charges\epik_inhibitors\output-new\Cabozantinib\Cabozantinib-input.mol2

> <i_m_source_file_index>
1

> <r_lp_tautomer_probability>
1

> <r_epik_Ionization_Penalty>
  0.7332

> <r_epik_Ionization_Penalty_Charging>
  0.0000

> <r_epik_Ionization_Penalty_Neutral>
  0.7332

> <r_epik_State_Penalty>
  0.7587

> <r_epik_Charging_Adjusted_Penalty>
0.758656596762249

> <i_epik_Tot_Q>
0

> <i_epik_Tot_abs_Q>
0

$$$$
