@<TRIPOS>MOLECULE
~{N}1-[4-[(6,7-dimethoxy-1,2-dihydroquinolin-2-ylium-4-yl)oxy]phenyl]-~{N}1'-(4-fluorophenyl)cyclopropane-1,1-dicarboxamide
   62    66     1     0     0
SMALL
USER_CHARGES

@<TRIPOS>ATOM
      1 C1          9.8501   -3.0378   -9.6145 C.3       1 CAB         0.1143
      2 O1          9.0703   -3.7100  -10.5966 O.3       1 CAB        -0.3290
      3 C2          7.7844   -4.0054  -10.2612 C.ar      1 CAB         0.0937
      4 C3          6.7732   -3.0889  -10.5347 C.ar      1 CAB        -0.0680
      5 C4          5.4406   -3.3779  -10.1950 C.ar      1 CAB        -0.1240
      6 C5          4.4032   -2.4735  -10.4588 C.ar      1 CAB         0.3119
      7 C6          3.0975   -2.7884  -10.1109 C.ar      1 CAB        -0.2873
      8 C7          2.8750   -4.0087   -9.5058 C.cat     1 CAB         0.1729
      9 N1          3.8471   -4.9092   -9.2339 N.pl3     1 CAB        -0.5174
     10 C8          5.1133   -4.6008   -9.5726 C.ar      1 CAB         0.1581
     11 C9          6.1443   -5.4990   -9.3109 C.ar      1 CAB        -0.1914
     12 C10         7.4692   -5.2118   -9.6486 C.ar      1 CAB         0.1903
     13 O2          8.4424   -6.1240   -9.3714 O.3       1 CAB        -0.3364
     14 C11         8.7304   -7.0910  -10.3794 C.3       1 CAB         0.1180
     15 O3          4.6391   -1.2702  -11.0576 O.3       1 CAB        -0.1857
     16 C12         4.2980   -0.1281  -10.3559 C.ar      1 CAB        -0.0308
     17 C13         3.6228    0.9095  -10.9987 C.ar      1 CAB        -0.0805
     18 C14         3.2790    2.0615  -10.2914 C.ar      1 CAB        -0.1673
     19 C15         3.6104    2.1759   -8.9413 C.ar      1 CAB         0.1203
     20 C16         4.2857    1.1383   -8.2986 C.ar      1 CAB        -0.1673
     21 C17         4.6295   -0.0137   -9.0059 C.ar      1 CAB        -0.0805
     22 N2          3.2697    3.3298   -8.2348 N.am      1 CAB        -0.4641
     23 C18         3.5163    3.6235   -6.8870 C.2       1 CAB         0.7231
     24 O4          4.0872    2.9173   -6.0622 O.2       1 CAB        -0.5436
     25 C19         2.9865    4.9828   -6.5049 C.3       1 CAB        -0.2964
     26 C20         3.9742    5.9101   -5.8507 C.3       1 CAB        -0.0959
     27 C21         3.5577    6.1471   -7.2676 C.3       1 CAB        -0.0959
     28 C22         1.5846    5.0440   -6.0832 C.2       1 CAB         0.7101
     29 O5          0.7336    5.7360   -6.6812 O.2       1 CAB        -0.5806
     30 N3          1.3226    4.2533   -4.9516 N.am      1 CAB        -0.4616
     31 C23         0.1029    4.0598   -4.2607 C.ar      1 CAB         0.0455
     32 C24         0.0578    3.2221   -3.1463 C.ar      1 CAB        -0.1389
     33 C25        -1.1446    3.0308   -2.4658 C.ar      1 CAB        -0.1379
     34 C26        -2.3020    3.6773   -2.8996 C.ar      1 CAB         0.1113
     35 C27        -2.2569    4.5150   -4.0140 C.ar      1 CAB        -0.1379
     36 C28        -1.0545    4.7062   -4.6946 C.ar      1 CAB        -0.1389
     37 F1         -3.4573    3.4915   -2.2477 F         1 CAB        -0.1321
     38 H1         10.8616   -2.8596  -10.0084 H         1 CAB         0.0589
     39 H2          9.9135   -3.6587   -8.7087 H         1 CAB         0.0589
     40 H3          9.3781   -2.0755   -9.3672 H         1 CAB         0.0589
     41 H4          7.0349   -2.1481  -11.0148 H         1 CAB         0.1897
     42 H5          2.2779   -2.1057  -10.3049 H         1 CAB         0.2043
     43 H6          1.8745   -4.3093   -9.2123 H         1 CAB         0.2007
     44 H7          5.9163   -6.4501   -8.8317 H         1 CAB         0.1759
     45 H8          9.5293   -7.7604  -10.0277 H         1 CAB         0.0618
     46 H9          9.0583   -6.5787  -11.2960 H         1 CAB         0.0618
     47 H10         7.8258   -7.6796  -10.5919 H         1 CAB         0.0618
     48 H11         3.3613    0.8257  -12.0500 H         1 CAB         0.1564
     49 H12         2.7536    2.8644  -10.8024 H         1 CAB         0.1720
     50 H13         4.5494    1.2171   -7.2470 H         1 CAB         0.1720
     51 H14         5.1550   -0.8187   -8.4993 H         1 CAB         0.1564
     52 H15         2.7397    4.1492   -8.7425 H         1 CAB         0.3321
     53 H16         3.5106    6.3767   -4.9690 H         1 CAB         0.0942
     54 H17         4.8620    5.3399   -5.5396 H         1 CAB         0.0942
     55 H18         4.0934    5.7772   -8.1543 H         1 CAB         0.0942
     56 H19         2.7420    6.8140   -7.5837 H         1 CAB         0.0942
     57 H20         2.1339    3.6758   -4.4843 H         1 CAB         0.3141
     58 H21         0.9536    2.7133   -2.7991 H         1 CAB         0.1529
     59 H22        -1.1808    2.3786   -1.5982 H         1 CAB         0.1570
     60 H23        -3.1586    5.0178   -4.3511 H         1 CAB         0.1570
     61 H24        -1.0312    5.3614   -5.5618 H         1 CAB         0.1529
     62 H62         3.5930   -5.8632   -8.7487 H         1 CAB         0.4877
@<TRIPOS>BOND
     1    1    2 1
     2    1   38 1
     3    1   39 1
     4    1   40 1
     5    2    3 1
     6    3   12 ar
     7    3    4 ar
     8    4    5 ar
     9    4   41 1
    10    5   10 ar
    11    5    6 ar
    12    6    7 ar
    13    6   15 1
    14    7    8 ar
    15    7   42 1
    16    8    9 ar
    17    8   43 1
    18    9   10 ar
    19    9   62 1
    20   10   11 ar
    21   11   12 ar
    22   11   44 1
    23   12   13 1
    24   13   14 1
    25   14   45 1
    26   14   46 1
    27   14   47 1
    28   15   16 1
    29   16   21 ar
    30   16   17 ar
    31   17   18 ar
    32   17   48 1
    33   18   19 ar
    34   18   49 1
    35   19   20 ar
    36   19   22 1
    37   20   21 ar
    38   20   50 1
    39   21   51 1
    40   22   23 am
    41   22   52 1
    42   23   24 2
    43   23   25 1
    44   25   27 1
    45   25   26 1
    46   25   28 1
    47   26   27 1
    48   26   53 1
    49   26   54 1
    50   27   55 1
    51   27   56 1
    52   28   29 2
    53   28   30 am
    54   30   31 1
    55   30   57 1
    56   31   36 ar
    57   31   32 ar
    58   32   33 ar
    59   32   58 1
    60   33   34 ar
    61   33   59 1
    62   34   35 ar
    63   34   37 1
    64   35   36 ar
    65   35   60 1
    66   36   61 1
@<TRIPOS>SUBSTRUCTURE
     1 CAB         1 GROUP   0 A     ****
@<TRIPOS>MOLECULE
~{N}1-[4-[(6,7-dimethoxy-4-quinolyl)oxy]phenyl]-~{N}1'-(4-fluorophenyl)cyclopropane-1,1-dicarboxamide
   61    65     1     0     0
SMALL
USER_CHARGES

@<TRIPOS>ATOM
      1 C1          9.8501   -3.0378   -9.6145 C.3       1 CAB         0.1196
      2 O1          9.0703   -3.7100  -10.5966 O.3       1 CAB        -0.3413
      3 C2          7.7844   -4.0054  -10.2612 C.ar      1 CAB         0.0741
      4 C3          6.7732   -3.0889  -10.5347 C.ar      1 CAB        -0.1003
      5 C4          5.4406   -3.3779  -10.1950 C.ar      1 CAB        -0.1555
      6 C5          4.4032   -2.4735  -10.4588 C.ar      1 CAB         0.1716
      7 C6          3.0975   -2.7884  -10.1109 C.ar      1 CAB        -0.3340
      8 C7          2.8750   -4.0087   -9.5058 C.ar      1 CAB         0.4415
      9 N1          3.8471   -4.9092   -9.2339 N.ar      1 CAB        -0.6772
     10 C8          5.1133   -4.6008   -9.5726 C.ar      1 CAB         0.4160
     11 C9          6.1443   -5.4990   -9.3109 C.ar      1 CAB        -0.1878
     12 C10         7.4692   -5.2118   -9.6486 C.ar      1 CAB         0.1012
     13 O2          8.4424   -6.1240   -9.3714 O.3       1 CAB        -0.3413
     14 C11         8.7304   -7.0910  -10.3794 C.3       1 CAB         0.1179
     15 O3          4.6391   -1.2702  -11.0576 O.3       1 CAB        -0.2398
     16 C12         4.2980   -0.1281  -10.3559 C.ar      1 CAB         0.0454
     17 C13         3.6228    0.9095  -10.9987 C.ar      1 CAB        -0.1024
     18 C14         3.2790    2.0615  -10.2914 C.ar      1 CAB        -0.1547
     19 C15         3.6104    2.1759   -8.9413 C.ar      1 CAB         0.0689
     20 C16         4.2857    1.1383   -8.2986 C.ar      1 CAB        -0.1547
     21 C17         4.6295   -0.0137   -9.0059 C.ar      1 CAB        -0.1024
     22 N2          3.2697    3.3298   -8.2348 N.am      1 CAB        -0.4649
     23 C18         3.5163    3.6235   -6.8870 C.2       1 CAB         0.7138
     24 O4          4.0872    2.9173   -6.0622 O.2       1 CAB        -0.5513
     25 C19         2.9865    4.9828   -6.5049 C.3       1 CAB        -0.2921
     26 C20         3.9742    5.9101   -5.8507 C.3       1 CAB        -0.0991
     27 C21         3.5577    6.1471   -7.2676 C.3       1 CAB        -0.0991
     28 C22         1.5846    5.0440   -6.0832 C.2       1 CAB         0.7094
     29 O5          0.7336    5.7360   -6.6812 O.2       1 CAB        -0.5673
     30 N3          1.3226    4.2533   -4.9516 N.am      1 CAB        -0.4704
     31 C23         0.1029    4.0598   -4.2607 C.ar      1 CAB         0.0572
     32 C24         0.0578    3.2221   -3.1463 C.ar      1 CAB        -0.1445
     33 C25        -1.1446    3.0308   -2.4658 C.ar      1 CAB        -0.1372
     34 C26        -2.3020    3.6773   -2.8996 C.ar      1 CAB         0.0999
     35 C27        -2.2569    4.5150   -4.0140 C.ar      1 CAB        -0.1372
     36 C28        -1.0545    4.7062   -4.6946 C.ar      1 CAB        -0.1445
     37 F1         -3.4573    3.4915   -2.2477 F         1 CAB        -0.1386
     38 H1         10.8616   -2.8596  -10.0084 H         1 CAB         0.0431
     39 H2          9.9135   -3.6587   -8.7087 H         1 CAB         0.0431
     40 H3          9.3781   -2.0755   -9.3672 H         1 CAB         0.0431
     41 H4          7.0349   -2.1481  -11.0148 H         1 CAB         0.1635
     42 H5          2.2779   -2.1057  -10.3049 H         1 CAB         0.1577
     43 H6          1.8745   -4.3093   -9.2123 H         1 CAB         0.0232
     44 H7          5.9163   -6.4501   -8.8317 H         1 CAB         0.1652
     45 H8          9.5293   -7.7604  -10.0277 H         1 CAB         0.0444
     46 H9          9.0583   -6.5787  -11.2960 H         1 CAB         0.0444
     47 H10         7.8258   -7.6796  -10.5919 H         1 CAB         0.0444
     48 H11         3.3613    0.8257  -12.0500 H         1 CAB         0.1540
     49 H12         2.7536    2.8644  -10.8024 H         1 CAB         0.1535
     50 H13         4.5494    1.2171   -7.2470 H         1 CAB         0.1535
     51 H14         5.1550   -0.8187   -8.4993 H         1 CAB         0.1540
     52 H15         2.7397    4.1492   -8.7425 H         1 CAB         0.3209
     53 H16         3.5106    6.3767   -4.9690 H         1 CAB         0.0912
     54 H17         4.8620    5.3399   -5.5396 H         1 CAB         0.0912
     55 H18         4.0934    5.7772   -8.1543 H         1 CAB         0.0912
     56 H19         2.7420    6.8140   -7.5837 H         1 CAB         0.0912
     57 H20         2.1339    3.6758   -4.4843 H         1 CAB         0.3140
     58 H21         0.9536    2.7133   -2.7991 H         1 CAB         0.1545
     59 H22        -1.1808    2.3786   -1.5982 H         1 CAB         0.1524
     60 H23        -3.1586    5.0178   -4.3511 H         1 CAB         0.1524
     61 H24        -1.0312    5.3614   -5.5618 H         1 CAB         0.1545
@<TRIPOS>BOND
     1    1    2 1
     2    1   38 1
     3    1   39 1
     4    1   40 1
     5    2    3 1
     6    3   12 ar
     7    3    4 ar
     8    4    5 ar
     9    4   41 1
    10    5   10 ar
    11    5    6 ar
    12    6    7 ar
    13    6   15 1
    14    7    8 ar
    15    7   42 1
    16    8    9 ar
    17    8   43 1
    18    9   10 ar
    19   10   11 ar
    20   11   12 ar
    21   11   44 1
    22   12   13 1
    23   13   14 1
    24   14   45 1
    25   14   46 1
    26   14   47 1
    27   15   16 1
    28   16   21 ar
    29   16   17 ar
    30   17   18 ar
    31   17   48 1
    32   18   19 ar
    33   18   49 1
    34   19   20 ar
    35   19   22 1
    36   20   21 ar
    37   20   50 1
    38   21   51 1
    39   22   23 am
    40   22   52 1
    41   23   24 2
    42   23   25 1
    43   25   27 1
    44   25   26 1
    45   25   28 1
    46   26   27 1
    47   26   53 1
    48   26   54 1
    49   27   55 1
    50   27   56 1
    51   28   29 2
    52   28   30 am
    53   30   31 1
    54   30   57 1
    55   31   36 ar
    56   31   32 ar
    57   32   33 ar
    58   32   58 1
    59   33   34 ar
    60   33   59 1
    61   34   35 ar
    62   34   37 1
    63   35   36 ar
    64   35   60 1
    65   36   61 1
@<TRIPOS>SUBSTRUCTURE
     1 CAB         1 GROUP   0 A     ****
