@<TRIPOS>MOLECULE
1N1
   62    65     1     0     0
SMALL
USER_CHARGES

@<TRIPOS>ATOM
      1 C1         46.2074   82.7311   39.4271 C.cat     1 Dasatinib_0006         0.1830
      2 C2         46.5786   81.9718   40.5129 C.2       1 Dasatinib_0006        -0.0450
      3 C3         47.6218   82.1955   41.5044 C.2       1 Dasatinib_0006         0.7150
      4 N6         39.3096   74.9575   36.4824 N.3       1 Dasatinib_0006        -0.8100
      5 C7         51.7898   84.4567   43.5661 C.ar      1 Dasatinib_0006        -0.1500
      6 C8         51.9857   84.1417   42.2242 C.ar      1 Dasatinib_0006        -0.1500
      7 C9         50.9153   83.7174   41.4167 C.ar      1 Dasatinib_0006        -0.1435
      8 C10        51.2032   83.3833   39.9757 C.3       1 Dasatinib_0006         0.1435
      9 C11        42.9997   79.2532   38.9648 C.2       1 Dasatinib_0006         0.4410
     10 C12        41.9408   78.8856   38.2327 C.2       1 Dasatinib_0006        -0.1356
     11 C13        41.1940   77.6590   38.6436 C.2       1 Dasatinib_0006         0.4856
     12 C14        42.9463   77.1387   40.1497 C.3       1 Dasatinib_0006         0.6151
     13 C15        42.8808   76.7676   41.6283 C.3       1 Dasatinib_0006         0.0000
     14 C16        39.1106   76.2929   38.6136 C.3       1 Dasatinib_0006         0.3691
     15 C19        39.7892   77.4373   36.5801 C.3       1 Dasatinib_0006         0.3691
     16 C20        39.7095   73.6454   35.9205 C.3       1 Dasatinib_0006         0.2700
     17 C21        39.4295   73.4650   34.4166 C.3       1 Dasatinib_0006         0.2800
     18 N          43.6618   80.4115   38.6371 N.pl3     1 Dasatinib_0006        -0.6230
     19 C          44.6787   81.0475   39.2152 C.cat     1 Dasatinib_0006         0.8250
     20 N1         45.1543   82.1946   38.7158 N.pl3     1 Dasatinib_0006        -0.6830
     21 S          45.5611   80.5829   40.6366 S.3       1 Dasatinib_0006        -0.1330
     22 N2         48.5665   83.1486   41.1409 N.am      1 Dasatinib_0006        -0.5470
     23 C4         49.6239   83.5924   41.9810 C.ar      1 Dasatinib_0006         0.1170
     24 C5         49.4311   83.9682   43.3293 C.ar      1 Dasatinib_0006         0.1770
     25 C6         50.5138   84.3809   44.1142 C.ar      1 Dasatinib_0006        -0.1500
     26 CL         47.8629   84.1279   44.0549 Cl        1 Dasatinib_0006        -0.1770
     27 O          47.6951   81.5489   42.5509 O.2       1 Dasatinib_0006        -0.5700
     28 N3         41.6396   76.8577   39.5623 N.2       1 Dasatinib_0006        -0.6960
     29 N4         43.3973   78.5038   40.0307 N.pl3     1 Dasatinib_0006        -0.8691
     30 N5         39.9629   77.3661   38.0489 N.pl3     1 Dasatinib_0006        -0.7882
     31 C17        39.4470   74.9325   37.9637 C.3       1 Dasatinib_0006         0.2700
     32 C18        40.1215   76.0707   35.9299 C.3       1 Dasatinib_0006         0.2700
     33 O1         38.0325   73.5836   34.1389 O.3       1 Dasatinib_0006        -0.6800
     34 H1         46.6521   83.6688   39.1122 H         1 Dasatinib_0006         0.1500
     35 H7         52.6282   84.7850   44.1777 H         1 Dasatinib_0006         0.1500
     36 H8         52.9898   84.2275   41.8085 H         1 Dasatinib_0006         0.1500
     37 H101       52.2717   83.4624   39.7480 H         1 Dasatinib_0006         0.0000
     38 H102       50.6738   84.0758   39.3135 H         1 Dasatinib_0006         0.0000
     39 H103       50.9003   82.3548   39.7541 H         1 Dasatinib_0006         0.0000
     40 H12        41.5738   79.4822   37.4119 H         1 Dasatinib_0006         0.1500
     41 H151       42.5805   75.7220   41.7565 H         1 Dasatinib_0006         0.0000
     42 H152       42.1526   77.3906   42.1608 H         1 Dasatinib_0006         0.0000
     43 H153       43.8540   76.9050   42.1121 H         1 Dasatinib_0006         0.0000
     44 H161       39.2121   76.2337   39.7035 H         1 Dasatinib_0006         0.0000
     45 H162       38.0591   76.5424   38.4204 H         1 Dasatinib_0006         0.0000
     46 H191       38.7485   77.7076   36.3603 H         1 Dasatinib_0006         0.0000
     47 H192       40.4115   78.2135   36.1264 H         1 Dasatinib_0006         0.0000
     48 H201       40.7731   73.4550   36.1120 H         1 Dasatinib_0006         0.0000
     49 H202       39.1380   72.8682   36.4443 H         1 Dasatinib_0006         0.0000
     50 H211       39.9743   74.1945   33.8101 H         1 Dasatinib_0006         0.0000
     51 H212       39.7474   72.4633   34.1082 H         1 Dasatinib_0006         0.0000
     52 HN         43.3270   80.9143   37.8246 H         1 Dasatinib_0006         0.4500
     53 HN2        48.7210   83.2347   40.1426 H         1 Dasatinib_0006         0.3700
     54 H6         50.3644   84.6755   45.1510 H         1 Dasatinib_0006         0.1500
     55 H171       38.7632   74.1809   38.3760 H         1 Dasatinib_0006         0.0000
     56 H172       40.4673   74.6375   38.2413 H         1 Dasatinib_0006         0.0000
     57 H181       41.1908   75.8612   36.0657 H         1 Dasatinib_0006         0.0000
     58 H182       39.9350   76.1679   34.8552 H         1 Dasatinib_0006         0.0000
     59 HO1        37.9427   73.4528   33.1711 H         1 Dasatinib_0006         0.4000
     60 H60        44.3735   78.6228   40.2904 H         1 Dasatinib_0006         0.4000
     61 H61        44.7416   82.6076   37.8825 H         1 Dasatinib_0006         0.4500
     62 H14        43.6804   76.4820   39.6659 H         1 Dasatinib_0006         0.0000
@<TRIPOS>BOND
     1    1    2 2
     2    1   20 1
     3    1   34 1
     4    2    3 1
     5    2   21 1
     6    3   22 am
     7    3   27 2
     8    4   16 1
     9    4   31 1
    10    4   32 1
    11    5    6 ar
    12    5   25 ar
    13    5   35 1
    14    6    7 ar
    15    6   36 1
    16    7    8 1
    17    7   23 ar
    18    8   37 1
    19    8   38 1
    20    8   39 1
    21    9   10 2
    22    9   18 1
    23    9   29 1
    24   10   11 1
    25   10   40 1
    26   11   28 2
    27   11   30 1
    28   12   13 1
    29   12   28 1
    30   12   29 1
    31   12   62 1
    32   13   41 1
    33   13   42 1
    34   13   43 1
    35   14   30 1
    36   14   31 1
    37   14   44 1
    38   14   45 1
    39   15   30 1
    40   15   32 1
    41   15   46 1
    42   15   47 1
    43   16   17 1
    44   16   48 1
    45   16   49 1
    46   17   33 1
    47   17   50 1
    48   17   51 1
    49   18   19 1
    50   18   52 1
    51   19   20 1
    52   19   21 1
    53   20   61 1
    54   22   23 1
    55   22   53 1
    56   23   24 ar
    57   24   25 ar
    58   24   26 1
    59   25   54 1
    60   29   60 1
    61   31   55 1
    62   31   56 1
    63   32   57 1
    64   32   58 1
    65   33   59 1
@<TRIPOS>SUBSTRUCTURE
     1 Dasatinib_0006         1 GROUP 0 A     ****
