@<TRIPOS>MOLECULE
1E8
   57    61     1     0     0
SMALL
NO_CHARGES

@<TRIPOS>ATOM
      1  N1       -11.8970  -20.0640   96.2940 N.ar      1 1E8         0.0000
      2  C2       -10.6990  -19.4910   95.8180 C.ar      1 1E8         0.0000
      3  N3       -10.6570  -18.0980   95.6680 N.ar      1 1E8         0.0000
      4  C4       -11.7590  -17.3740   95.9760 C.ar      1 1E8         0.0000
      5  C5       -12.9000  -17.9400   96.4280 C.ar      1 1E8         0.0000
      6  C6       -12.9520  -19.2850   96.5730 C.ar      1 1E8         0.0000
      7  CAA       -6.5230  -13.7940   91.5600 C.2       1 1E8         0.0000
      8  NAB      -14.0740  -19.8500   97.0140 N.pl3     1 1E8         0.0000
      9  OAC       -8.6180  -15.5710   92.3180 O.2       1 1E8         0.0000
     10  CAD       -7.6890  -13.3480   92.4520 C.2       1 1E8         0.0000
     11  CAE      -22.4630  -17.7170   97.5730 C.ar      1 1E8         0.0000
     12  CAF      -22.0950  -16.3730   97.4670 C.ar      1 1E8         0.0000
     13  CAG      -21.5800  -18.6410   98.1460 C.ar      1 1E8         0.0000
     14  CAI      -20.8500  -15.9540   97.9330 C.ar      1 1E8         0.0000
     15  CAJ      -20.3270  -18.2210   98.6090 C.ar      1 1E8         0.0000
     16  CAK      -17.3290  -16.0750   97.0050 C.ar      1 1E8         0.0000
     17  CAL      -16.4860  -17.1440   98.9750 C.ar      1 1E8         0.0000
     18  CAM      -16.0580  -16.1840   96.4060 C.ar      1 1E8         0.0000
     19  CAN      -15.2270  -17.2490   98.3800 C.ar      1 1E8         0.0000
     20  CAO       -9.8380  -12.7580   95.6070 C.3       1 1E8         0.0000
     21  CAP      -10.9480  -13.7250   96.1150 C.3       1 1E8         0.0000
     22  CAQ       -9.8670  -12.6680   94.0780 C.3       1 1E8         0.0000
     23  CAR      -10.8340  -15.0040   93.9210 C.3       1 1E8         0.0000
     24  NAU      -13.0920  -15.7850   96.2780 N.ar      1 1E8         0.0000
     25  OAV      -18.7500  -16.4530   98.9480 O.3       1 1E8         0.0000
     26  CAW       -8.7370  -14.4310   92.7700 C.2       1 1E8         0.0000
     27  CAY      -19.9580  -16.8770   98.4810 C.ar      1 1E8         0.0000
     28  CAZ      -17.5510  -16.5680   98.2850 C.ar      1 1E8         0.0000
     29  CBA      -15.0000  -16.8080   97.0820 C.ar      1 1E8         0.0000
     30  CBB      -13.7440  -16.8970   96.5950 C.ar      1 1E8         0.0000
     31  CBE      -10.8650  -15.1300   95.4450 C.3       1 1E8         0.0000
     32  NBF      -11.9470  -16.0570   95.9090 N.pl3     1 1E8         0.0000
     33  NBG       -9.7800  -14.0360   93.5260 N.am      1 1E8         0.0000
     34  H2        -9.8430  -20.1050   95.5770 H         1 1E8         0.0000
     35  HAA       -6.4770  -14.8110   91.1990 H         1 1E8         0.0000
     36 HAAA       -5.7480  -13.0910   91.2930 H         1 1E8         0.0000
     37 HNAB      -13.9480  -20.8400   97.0740 H         1 1E8         0.0000
     38 HNAA      -14.2960  -19.4870   97.9190 H         1 1E8         0.0000
     39  HAD       -7.7700  -12.3400   92.8320 H         1 1E8         0.0000
     40  HAE      -23.4280  -18.0430   97.2130 H         1 1E8         0.0000
     41  HAF      -22.7750  -15.6600   97.0240 H         1 1E8         0.0000
     42  HAG      -21.8660  -19.6790   98.2310 H         1 1E8         0.0000
     43  HAI      -20.5750  -14.9120   97.8700 H         1 1E8         0.0000
     44  HAJ      -19.6500  -18.9300   99.0620 H         1 1E8         0.0000
     45  HAK      -18.1370  -15.6040   96.4650 H         1 1E8         0.0000
     46  HAL      -16.6360  -17.5130   99.9790 H         1 1E8         0.0000
     47  HAM      -15.8970  -15.7830   95.4160 H         1 1E8         0.0000
     48  HAN      -14.4120  -17.6820   98.9410 H         1 1E8         0.0000
     49  HAO       -8.8550  -13.1330   95.9290 H         1 1E8         0.0000
     50 HAOA      -10.0060  -11.7580   96.0320 H         1 1E8         0.0000
     51  HAP      -10.8400  -13.8460   97.2030 H         1 1E8         0.0000
     52 HAPA      -11.9300  -13.2840   95.8900 H         1 1E8         0.0000
     53  HAQ      -10.8050  -12.1950   93.7520 H         1 1E8         0.0000
     54 HAQA       -9.0130  -12.0710   93.7250 H         1 1E8         0.0000
     55  HAR      -11.8110  -14.6490   93.5620 H         1 1E8         0.0000
     56 HARA      -10.6150  -15.9860   93.4760 H         1 1E8         0.0000
     57  HBE       -9.9040  -15.5690   95.7510 H         1 1E8         0.0000
@<TRIPOS>BOND
     1    1    6 ar
     2    1    2 ar
     3    2   34 1
     4    2    3 ar
     5    3    4 ar
     6    4    5 ar
     7    5    6 ar
     8    5   30 ar
     9    6    8 1
    10    7   10 2
    11    7   35 1
    12    7   36 1
    13    8   37 1
    14    8   38 1
    15    9   26 2
    16   10   26 1
    17   10   39 1
    18   11   13 ar
    19   11   40 1
    20   11   12 ar
    21   12   14 ar
    22   12   41 1
    23   13   15 ar
    24   13   42 1
    25   14   27 ar
    26   14   43 1
    27   15   44 1
    28   16   28 ar
    29   16   45 1
    30   17   46 1
    31   16   18 ar
    32   18   29 ar
    33   18   47 1
    34   17   19 ar
    35   19   48 1
    36   20   21 1
    37   20   49 1
    38   20   50 1
    39   21   51 1
    40   21   52 1
    41   20   22 1
    42   22   53 1
    43   22   54 1
    44   23   31 1
    45   23   55 1
    46   23   56 1
    47   24   30 ar
    48   26   33 am
    49   15   27 ar
    50   25   27 1
    51   17   28 ar
    52   25   28 1
    53   19   29 ar
    54   29   30 1
    55   21   31 1
    56   31   32 1
    57   31   57 1
    58    4   32 ar
    59   24   32 ar
    60   22   33 1
    61   23   33 1
@<TRIPOS>SUBSTRUCTURE
     1 1E8         1 GROUP 0 A     ****
