@<TRIPOS>MOLECULE
3-[(1~{R})-1-(2,6-dichloro-3-fluoro-phenyl)ethoxy]-5-(1-piperidin-1-ium-4-ylpyrazol-4-yl)pyridin-1-ium-2-amine
   54    57     0     0     0
SMALL
USER_CHARGES

@<TRIPOS>ATOM
      1 C1          7.2574   -5.0035   -2.4989 C.3       1 <0>        -0.1385
      2 C2          5.7795   -4.9328   -2.8571 C.3       1 <0>         0.1918
      3 H1          5.2599   -4.2745   -2.1452 H         1 <0>         0.0647
      4 C3          5.1215   -6.2919   -2.8552 C.ar      1 <0>        -0.0817
      5 C4          5.0946   -7.0546   -4.0228 C.ar      1 <0>         0.0382
      6 C5          4.4865   -8.3100   -4.0219 C.ar      1 <0>        -0.0927
      7 C6          3.9053   -8.8026   -2.8535 C.ar      1 <0>        -0.1219
      8 C7          3.9322   -8.0399   -1.6859 C.ar      1 <0>         0.1547
      9 C8          4.5402   -6.7845   -1.6868 C.ar      1 <0>        -0.0156
     10 Cl1         4.5541   -5.8684   -0.2221 Cl        1 <0>        -0.0620
     11 F1          3.3693   -8.5294   -0.5716 F         1 <0>        -0.0998
     12 Cl2         5.8015   -6.4840   -5.4915 Cl        1 <0>        -0.0738
     13 O1          5.6466   -4.3734   -4.1585 O.3       1 <0>        -0.3234
     14 C9          4.9309   -3.2232   -4.2595 C.ar      1 <0>         0.0448
     15 C10         5.4832   -2.0498   -4.7473 C.ar      1 <0>         0.2871
     16 N1          4.8060   -0.8855   -4.8630 N.ar      1 <0>        -0.1677
     17 C11         3.5126   -0.9018   -4.4698 C.ar      1 <0>        -0.0560
     18 C12         2.8679   -2.0214   -3.9692 C.ar      1 <0>        -0.0073
     19 C13         3.5978   -3.2003   -3.8652 C.ar      1 <0>        -0.0155
     20 C14         1.4950   -1.9665   -3.5726 C.2       1 <0>        -0.2359
     21 C15         0.9461   -2.7689   -2.5544 C.2       1 <0>        -0.1019
     22 N2         -0.3557   -2.5395   -2.3625 N.pl3     1 <0>         0.0785
     23 N3         -0.6335   -1.5843   -3.2661 N.2       1 <0>        -0.4968
     24 C16         0.4408   -1.2062   -4.0164 C.2       1 <0>         0.3609
     25 C17        -1.3475   -3.1104   -1.4453 C.3       1 <0>         0.0781
     26 C18        -1.8656   -2.0889   -0.4207 C.3       1 <0>        -0.1288
     27 C19        -2.9116   -2.7200    0.4982 C.3       1 <0>         0.1075
     28 N4         -4.0137   -3.3062   -0.2655 N.4       1 <0>        -0.7643
     29 C20        -3.5389   -4.3383   -1.1879 C.3       1 <0>         0.1075
     30 C21        -2.5206   -3.7777   -2.1805 C.3       1 <0>        -0.1288
     31 N5          6.8427   -2.0723   -5.1481 N.pl3     1 <0>        -0.8099
     32 H2          7.6873   -3.9911   -2.5146 H         1 <0>         0.0635
     33 H3          7.7820   -5.6360   -3.2301 H         1 <0>         0.0635
     34 H4          7.3707   -5.4345   -1.4932 H         1 <0>         0.0635
     35 H5          4.4566   -8.9171   -4.9234 H         1 <0>         0.1752
     36 H6          3.4321   -9.7802   -2.8524 H         1 <0>         0.1815
     37 H7          2.9990    0.0494   -4.5767 H         1 <0>         0.1913
     38 H8          3.1354   -4.1057   -3.4780 H         1 <0>         0.1969
     39 H9          1.4552   -3.5097   -1.9501 H         1 <0>         0.1871
     40 H10         0.3372   -0.4467   -4.7759 H         1 <0>         0.0695
     41 H11        -0.7641   -3.8820   -0.9216 H         1 <0>         0.0793
     42 H12        -1.0273   -1.7281    0.1934 H         1 <0>         0.1088
     43 H13        -2.3250   -1.2404   -0.9489 H         1 <0>         0.1088
     44 H14        -2.4421   -3.5144    1.0969 H         1 <0>         0.1163
     45 H15        -3.3232   -1.9507    1.1681 H         1 <0>         0.1163
     46 H16        -4.7364   -3.7637    0.4261 H         1 <0>         0.4640
     47 H17        -3.0596   -5.1475   -0.6174 H         1 <0>         0.1163
     48 H18        -4.3903   -4.7436   -1.7544 H         1 <0>         0.1163
     49 H19        -3.0218   -3.0363   -2.8202 H         1 <0>         0.1088
     50 H20        -2.1422   -4.6024   -2.8023 H         1 <0>         0.1088
     51 H21         7.3156   -1.1599   -5.5404 H         1 <0>         0.4876
     52 H22         7.4248   -3.0021   -5.0668 H         1 <0>         0.4876
     53 H23        -4.5133   -2.5200   -0.8506 H         1 <0>         0.4640
     54 H24         5.3112    0.0075   -5.2597 H         1 <0>         0.3337
@<TRIPOS>BOND
     1    1    2 1
     2    1   32 1
     3    1   33 1
     4    1   34 1
     5    2    3 1
     6    2    4 1
     7    2   13 1
     8    4    9 ar
     9    4    5 ar
    10    5    6 ar
    11    5   12 1
    12    6    7 ar
    13    6   35 1
    14    7    8 ar
    15    7   36 1
    16    8    9 ar
    17    8   11 1
    18    9   10 1
    19   13   14 1
    20   14   19 ar
    21   14   15 ar
    22   15   16 ar
    23   15   31 1
    24   16   17 ar
    25   16   54 1
    26   17   18 ar
    27   17   37 1
    28   18   19 ar
    29   18   20 1
    30   19   38 1
    31   20   24 1
    32   20   21 2
    33   21   22 1
    34   21   39 1
    35   22   23 1
    36   22   25 1
    37   23   24 2
    38   24   40 1
    39   25   30 1
    40   25   26 1
    41   25   41 1
    42   26   27 1
    43   26   42 1
    44   26   43 1
    45   27   28 1
    46   27   44 1
    47   27   45 1
    48   28   29 1
    49   28   46 1
    50   28   53 1
    51   29   30 1
    52   29   47 1
    53   29   48 1
    54   30   49 1
    55   30   50 1
    56   31   51 1
    57   31   52 1
@<TRIPOS>MOLECULE
3-[(1~{R})-1-(2,6-dichloro-3-fluoro-phenyl)ethoxy]-5-(1-piperidin-1-ium-4-ylpyrazol-4-yl)pyridin-2-amine
   53    56     0     0     0
SMALL
USER_CHARGES

@<TRIPOS>ATOM
      1 C1          7.2574   -5.0035   -2.4989 C.3       1 <0>        -0.1305
      2 C2          5.7795   -4.9328   -2.8571 C.3       1 <0>         0.1803
      3 H1          5.2599   -4.2745   -2.1452 H         1 <0>         0.0773
      4 C3          5.1215   -6.2919   -2.8552 C.ar      1 <0>        -0.0484
      5 C4          5.0946   -7.0546   -4.0228 C.ar      1 <0>         0.0347
      6 C5          4.4865   -8.3100   -4.0219 C.ar      1 <0>        -0.1049
      7 C6          3.9053   -8.8026   -2.8535 C.ar      1 <0>        -0.1410
      8 C7          3.9322   -8.0399   -1.6859 C.ar      1 <0>         0.1367
      9 C8          4.5402   -6.7845   -1.6868 C.ar      1 <0>        -0.0122
     10 Cl1         4.5541   -5.8684   -0.2221 Cl        1 <0>        -0.0565
     11 F1          3.3693   -8.5294   -0.5716 F         1 <0>        -0.1160
     12 Cl2         5.8015   -6.4840   -5.4915 Cl        1 <0>        -0.0736
     13 O1          5.6466   -4.3734   -4.1585 O.3       1 <0>        -0.3330
     14 C9          4.9309   -3.2232   -4.2595 C.ar      1 <0>        -0.0899
     15 C10         5.4832   -2.0498   -4.7473 C.ar      1 <0>         0.6631
     16 N1          4.8060   -0.8855   -4.8630 N.ar      1 <0>        -0.7239
     17 C11         3.5126   -0.9018   -4.4698 C.ar      1 <0>         0.4538
     18 C12         2.8679   -2.0214   -3.9692 C.ar      1 <0>        -0.2038
     19 C13         3.5978   -3.2003   -3.8652 C.ar      1 <0>        -0.0425
     20 C14         1.4950   -1.9665   -3.5726 C.2       1 <0>        -0.1443
     21 C15         0.9461   -2.7689   -2.5544 C.2       1 <0>        -0.1391
     22 N2         -0.3557   -2.5395   -2.3625 N.pl3     1 <0>         0.0449
     23 N3         -0.6335   -1.5843   -3.2661 N.2       1 <0>        -0.5308
     24 C16         0.4408   -1.2062   -4.0164 C.2       1 <0>         0.3377
     25 C17        -1.3475   -3.1104   -1.4453 C.3       1 <0>         0.0891
     26 C18        -1.8656   -2.0889   -0.4207 C.3       1 <0>        -0.1316
     27 C19        -2.9116   -2.7200    0.4982 C.3       1 <0>         0.1101
     28 N4         -4.0137   -3.3062   -0.2655 N.4       1 <0>        -0.7651
     29 C20        -3.5389   -4.3383   -1.1879 C.3       1 <0>         0.1101
     30 C21        -2.5206   -3.7777   -2.1805 C.3       1 <0>        -0.1316
     31 N5          6.8427   -2.0723   -5.1481 N.pl3     1 <0>        -0.9359
     32 H2          7.6873   -3.9911   -2.5146 H         1 <0>         0.0540
     33 H3          7.7820   -5.6360   -3.2301 H         1 <0>         0.0540
     34 H4          7.3707   -5.4345   -1.4932 H         1 <0>         0.0540
     35 H5          4.4566   -8.9171   -4.9234 H         1 <0>         0.1610
     36 H6          3.4321   -9.7802   -2.8524 H         1 <0>         0.1656
     37 H7          2.9990    0.0494   -4.5767 H         1 <0>         0.0144
     38 H8          3.1354   -4.1057   -3.4780 H         1 <0>         0.1515
     39 H9          1.4552   -3.5097   -1.9501 H         1 <0>         0.1826
     40 H10         0.3372   -0.4467   -4.7759 H         1 <0>         0.0588
     41 H11        -0.7641   -3.8820   -0.9216 H         1 <0>         0.0735
     42 H12        -1.0273   -1.7281    0.1934 H         1 <0>         0.1074
     43 H13        -2.3250   -1.2404   -0.9489 H         1 <0>         0.1074
     44 H14        -2.4421   -3.5144    1.0969 H         1 <0>         0.1081
     45 H15        -3.3232   -1.9507    1.1681 H         1 <0>         0.1081
     46 H16        -4.7364   -3.7637    0.4261 H         1 <0>         0.4564
     47 H17        -3.0596   -5.1475   -0.6174 H         1 <0>         0.1081
     48 H18        -4.3903   -4.7436   -1.7544 H         1 <0>         0.1081
     49 H19        -3.0218   -3.0363   -2.8202 H         1 <0>         0.1074
     50 H20        -2.1422   -4.6024   -2.8023 H         1 <0>         0.1074
     51 H21         7.3156   -1.1599   -5.5404 H         1 <0>         0.4363
     52 H22         7.4248   -3.0021   -5.0668 H         1 <0>         0.4363
     53 H23        -4.5133   -2.5200   -0.8506 H         1 <0>         0.4564
@<TRIPOS>BOND
     1    1    2 1
     2    1   32 1
     3    1   33 1
     4    1   34 1
     5    2    3 1
     6    2    4 1
     7    2   13 1
     8    4    9 ar
     9    4    5 ar
    10    5    6 ar
    11    5   12 1
    12    6    7 ar
    13    6   35 1
    14    7    8 ar
    15    7   36 1
    16    8    9 ar
    17    8   11 1
    18    9   10 1
    19   13   14 1
    20   14   19 ar
    21   14   15 ar
    22   15   16 ar
    23   15   31 1
    24   16   17 ar
    25   17   18 ar
    26   17   37 1
    27   18   19 ar
    28   18   20 1
    29   19   38 1
    30   20   24 1
    31   20   21 2
    32   21   22 1
    33   21   39 1
    34   22   23 1
    35   22   25 1
    36   23   24 2
    37   24   40 1
    38   25   30 1
    39   25   26 1
    40   25   41 1
    41   26   27 1
    42   26   42 1
    43   26   43 1
    44   27   28 1
    45   27   44 1
    46   27   45 1
    47   28   29 1
    48   28   46 1
    49   28   53 1
    50   29   30 1
    51   29   47 1
    52   29   48 1
    53   30   49 1
    54   30   50 1
    55   31   51 1
    56   31   52 1
@<TRIPOS>MOLECULE
3-[(1~{R})-1-(2,6-dichloro-3-fluoro-phenyl)ethoxy]-5-[1-(4-piperidyl)pyrazol-4-yl]pyridin-2-amine
   52    55     0     0     0
SMALL
USER_CHARGES

@<TRIPOS>ATOM
      1 C1          7.2574   -5.0035   -2.4989 C.3       1 <0>        -0.1303
      2 C2          5.7795   -4.9328   -2.8571 C.3       1 <0>         0.1828
      3 H1          5.2599   -4.2745   -2.1452 H         1 <0>         0.0707
      4 C3          5.1215   -6.2919   -2.8552 C.ar      1 <0>        -0.0366
      5 C4          5.0946   -7.0546   -4.0228 C.ar      1 <0>         0.0355
      6 C5          4.4865   -8.3100   -4.0219 C.ar      1 <0>        -0.1066
      7 C6          3.9053   -8.8026   -2.8535 C.ar      1 <0>        -0.1439
      8 C7          3.9322   -8.0399   -1.6859 C.ar      1 <0>         0.1322
      9 C8          4.5402   -6.7845   -1.6868 C.ar      1 <0>        -0.0069
     10 Cl1         4.5541   -5.8684   -0.2221 Cl        1 <0>        -0.0567
     11 F1          3.3693   -8.5294   -0.5716 F         1 <0>        -0.1211
     12 Cl2         5.8015   -6.4840   -5.4915 Cl        1 <0>        -0.0781
     13 O1          5.6466   -4.3734   -4.1585 O.3       1 <0>        -0.3294
     14 C9          4.9309   -3.2232   -4.2595 C.ar      1 <0>        -0.0552
     15 C10         5.4832   -2.0498   -4.7473 C.ar      1 <0>         0.6305
     16 N1          4.8060   -0.8855   -4.8630 N.ar      1 <0>        -0.7130
     17 C11         3.5126   -0.9018   -4.4698 C.ar      1 <0>         0.4207
     18 C12         2.8679   -2.0214   -3.9692 C.ar      1 <0>        -0.1337
     19 C13         3.5978   -3.2003   -3.8652 C.ar      1 <0>        -0.1124
     20 C14         1.4950   -1.9665   -3.5726 C.2       1 <0>        -0.2012
     21 C15         0.9461   -2.7689   -2.5544 C.2       1 <0>        -0.1354
     22 N2         -0.3557   -2.5395   -2.3625 N.pl3     1 <0>         0.0911
     23 N3         -0.6335   -1.5843   -3.2661 N.2       1 <0>        -0.5036
     24 C16         0.4408   -1.2062   -4.0164 C.2       1 <0>         0.2990
     25 C17        -1.3475   -3.1104   -1.4453 C.3       1 <0>         0.0754
     26 C18        -1.8656   -2.0889   -0.4207 C.3       1 <0>        -0.0887
     27 C19        -2.9116   -2.7200    0.4982 C.3       1 <0>         0.1631
     28 N4         -4.0137   -3.3062   -0.2655 N.3       1 <0>        -0.8201
     29 C20        -3.5389   -4.3383   -1.1879 C.3       1 <0>         0.1631
     30 C21        -2.5206   -3.7777   -2.1805 C.3       1 <0>        -0.0887
     31 N5          6.8427   -2.0723   -5.1481 N.pl3     1 <0>        -0.9251
     32 H2          7.6873   -3.9911   -2.5146 H         1 <0>         0.0564
     33 H3          7.7820   -5.6360   -3.2301 H         1 <0>         0.0564
     34 H4          7.3707   -5.4345   -1.4932 H         1 <0>         0.0564
     35 H5          4.4566   -8.9171   -4.9234 H         1 <0>         0.1583
     36 H6          3.4321   -9.7802   -2.8524 H         1 <0>         0.1614
     37 H7          2.9990    0.0494   -4.5767 H         1 <0>         0.0206
     38 H8          3.1354   -4.1057   -3.4780 H         1 <0>         0.1454
     39 H9          1.4552   -3.5097   -1.9501 H         1 <0>         0.1771
     40 H10         0.3372   -0.4467   -4.7759 H         1 <0>         0.0410
     41 H11        -0.7641   -3.8820   -0.9216 H         1 <0>         0.0543
     42 H12        -1.0273   -1.7281    0.1934 H         1 <0>         0.0669
     43 H13        -2.3250   -1.2404   -0.9489 H         1 <0>         0.0669
     44 H14        -2.4421   -3.5144    1.0969 H         1 <0>         0.0314
     45 H15        -3.3232   -1.9507    1.1681 H         1 <0>         0.0314
     46 H16        -4.7364   -3.7637    0.4261 H         1 <0>         0.3682
     47 H17        -3.0596   -5.1475   -0.6174 H         1 <0>         0.0314
     48 H18        -4.3903   -4.7436   -1.7544 H         1 <0>         0.0314
     49 H19        -3.0218   -3.0363   -2.8202 H         1 <0>         0.0669
     50 H20        -2.1422   -4.6024   -2.8023 H         1 <0>         0.0669
     51 H21         7.3156   -1.1599   -5.5404 H         1 <0>         0.4170
     52 H22         7.4248   -3.0021   -5.0668 H         1 <0>         0.4170
@<TRIPOS>BOND
     1    1    2 1
     2    1   32 1
     3    1   33 1
     4    1   34 1
     5    2    3 1
     6    2    4 1
     7    2   13 1
     8    4    9 ar
     9    4    5 ar
    10    5    6 ar
    11    5   12 1
    12    6    7 ar
    13    6   35 1
    14    7    8 ar
    15    7   36 1
    16    8    9 ar
    17    8   11 1
    18    9   10 1
    19   13   14 1
    20   14   19 ar
    21   14   15 ar
    22   15   16 ar
    23   15   31 1
    24   16   17 ar
    25   17   18 ar
    26   17   37 1
    27   18   19 ar
    28   18   20 1
    29   19   38 1
    30   20   24 1
    31   20   21 2
    32   21   22 1
    33   21   39 1
    34   22   23 1
    35   22   25 1
    36   23   24 2
    37   24   40 1
    38   25   30 1
    39   25   26 1
    40   25   41 1
    41   26   27 1
    42   26   42 1
    43   26   43 1
    44   27   28 1
    45   27   44 1
    46   27   45 1
    47   28   29 1
    48   28   46 1
    49   29   30 1
    50   29   47 1
    51   29   48 1
    52   30   49 1
    53   30   50 1
    54   31   51 1
    55   31   52 1
@<TRIPOS>MOLECULE
3-[(1~{R})-1-(2,6-dichloro-3-fluoro-phenyl)ethoxy]-5-[1-(4-piperidyl)pyrazol-4-yl]pyridin-1-ium-2-amine
   53    56     0     0     0
SMALL
USER_CHARGES

@<TRIPOS>ATOM
      1 C1          7.2574   -5.0035   -2.4989 C.3       1 <0>        -0.1382
      2 C2          5.7795   -4.9328   -2.8571 C.3       1 <0>         0.1975
      3 H1          5.2599   -4.2745   -2.1452 H         1 <0>         0.0760
      4 C3          5.1215   -6.2919   -2.8552 C.ar      1 <0>        -0.0676
      5 C4          5.0946   -7.0546   -4.0228 C.ar      1 <0>         0.0340
      6 C5          4.4865   -8.3100   -4.0219 C.ar      1 <0>        -0.0962
      7 C6          3.9053   -8.8026   -2.8535 C.ar      1 <0>        -0.1276
      8 C7          3.9322   -8.0399   -1.6859 C.ar      1 <0>         0.1495
      9 C8          4.5402   -6.7845   -1.6868 C.ar      1 <0>        -0.0072
     10 Cl1         4.5541   -5.8684   -0.2221 Cl        1 <0>        -0.0478
     11 F1          3.3693   -8.5294   -0.5716 F         1 <0>        -0.1041
     12 Cl2         5.8015   -6.4840   -5.4915 Cl        1 <0>        -0.0912
     13 O1          5.6466   -4.3734   -4.1585 O.3       1 <0>        -0.3303
     14 C9          4.9309   -3.2232   -4.2595 C.ar      1 <0>         0.0727
     15 C10         5.4832   -2.0498   -4.7473 C.ar      1 <0>         0.2779
     16 N1          4.8060   -0.8855   -4.8630 N.ar      1 <0>        -0.1519
     17 C11         3.5126   -0.9018   -4.4698 C.ar      1 <0>        -0.0919
     18 C12         2.8679   -2.0214   -3.9692 C.ar      1 <0>         0.0478
     19 C13         3.5978   -3.2003   -3.8652 C.ar      1 <0>        -0.0819
     20 C14         1.4950   -1.9665   -3.5726 C.2       1 <0>        -0.2877
     21 C15         0.9461   -2.7689   -2.5544 C.2       1 <0>        -0.0998
     22 N2         -0.3557   -2.5395   -2.3625 N.pl3     1 <0>         0.1240
     23 N3         -0.6335   -1.5843   -3.2661 N.2       1 <0>        -0.4710
     24 C16         0.4408   -1.2062   -4.0164 C.2       1 <0>         0.3253
     25 C17        -1.3475   -3.1104   -1.4453 C.3       1 <0>         0.0654
     26 C18        -1.8656   -2.0889   -0.4207 C.3       1 <0>        -0.0892
     27 C19        -2.9116   -2.7200    0.4982 C.3       1 <0>         0.1659
     28 N4         -4.0137   -3.3062   -0.2655 N.3       1 <0>        -0.8258
     29 C20        -3.5389   -4.3383   -1.1879 C.3       1 <0>         0.1659
     30 C21        -2.5206   -3.7777   -2.1805 C.3       1 <0>        -0.0892
     31 N5          6.8427   -2.0723   -5.1481 N.pl3     1 <0>        -0.8285
     32 H2          7.6873   -3.9911   -2.5146 H         1 <0>         0.0650
     33 H3          7.7820   -5.6360   -3.2301 H         1 <0>         0.0650
     34 H4          7.3707   -5.4345   -1.4932 H         1 <0>         0.0650
     35 H5          4.4566   -8.9171   -4.9234 H         1 <0>         0.1706
     36 H6          3.4321   -9.7802   -2.8524 H         1 <0>         0.1769
     37 H7          2.9990    0.0494   -4.5767 H         1 <0>         0.1971
     38 H8          3.1354   -4.1057   -3.4780 H         1 <0>         0.1892
     39 H9          1.4552   -3.5097   -1.9501 H         1 <0>         0.1830
     40 H10         0.3372   -0.4467   -4.7759 H         1 <0>         0.0507
     41 H11        -0.7641   -3.8820   -0.9216 H         1 <0>         0.0615
     42 H12        -1.0273   -1.7281    0.1934 H         1 <0>         0.0686
     43 H13        -2.3250   -1.2404   -0.9489 H         1 <0>         0.0686
     44 H14        -2.4421   -3.5144    1.0969 H         1 <0>         0.0389
     45 H15        -3.3232   -1.9507    1.1681 H         1 <0>         0.0389
     46 H16        -4.7364   -3.7637    0.4261 H         1 <0>         0.3832
     47 H17        -3.0596   -5.1475   -0.6174 H         1 <0>         0.0389
     48 H18        -4.3903   -4.7436   -1.7544 H         1 <0>         0.0389
     49 H19        -3.0218   -3.0363   -2.8202 H         1 <0>         0.0686
     50 H20        -2.1422   -4.6024   -2.8023 H         1 <0>         0.0686
     51 H21         7.3156   -1.1599   -5.5404 H         1 <0>         0.4806
     52 H22         7.4248   -3.0021   -5.0668 H         1 <0>         0.4806
     53 H23         5.3112    0.0075   -5.2597 H         1 <0>         0.3266
@<TRIPOS>BOND
     1    1    2 1
     2    1   32 1
     3    1   33 1
     4    1   34 1
     5    2    3 1
     6    2    4 1
     7    2   13 1
     8    4    9 ar
     9    4    5 ar
    10    5    6 ar
    11    5   12 1
    12    6    7 ar
    13    6   35 1
    14    7    8 ar
    15    7   36 1
    16    8    9 ar
    17    8   11 1
    18    9   10 1
    19   13   14 1
    20   14   19 ar
    21   14   15 ar
    22   15   16 ar
    23   15   31 1
    24   16   17 ar
    25   16   53 1
    26   17   18 ar
    27   17   37 1
    28   18   19 ar
    29   18   20 1
    30   19   38 1
    31   20   24 1
    32   20   21 2
    33   21   22 1
    34   21   39 1
    35   22   23 1
    36   22   25 1
    37   23   24 2
    38   24   40 1
    39   25   30 1
    40   25   26 1
    41   25   41 1
    42   26   27 1
    43   26   42 1
    44   26   43 1
    45   27   28 1
    46   27   44 1
    47   27   45 1
    48   28   29 1
    49   28   46 1
    50   29   30 1
    51   29   47 1
    52   29   48 1
    53   30   49 1
    54   30   50 1
    55   31   51 1
    56   31   52 1
