MI1
  CCTOOLS-0721180811

 43 45  0  0  1  0  0  0  0  0999 V2000
   11.4000   14.0760  -15.3490 C   0  0  0  0  0
   11.1110   14.1980  -16.8320 C   0  0  0  0  0
   10.0430   11.9040  -16.9620 C   0  0  0  0  0
   10.5440   11.6320  -15.5380 C   0  0  0  0  0
   11.7130   12.5520  -15.1220 C   0  0  0  0  0
    9.9090   13.3800  -17.0700 N   0  0  0  0  0
    8.6640   15.1600  -17.5640 O   0  0  0  0  0
    8.7790   13.9460  -17.4370 C   0  0  0  0  0
    7.5860   13.0420  -17.6590 C   0  0  0  0  0
    6.4020   13.8860  -17.8860 C   0  0  0  0  0
    5.4400   14.5060  -18.0770 N   0  0  0  0  0
   13.0070   11.9550  -15.7290 C   0  0  0  0  0
   12.6080   14.8790  -14.9290 N   0  0  0  0  0
   13.6000   15.3730  -15.8880 C   0  0  0  0  0
   12.8720   15.1980  -13.6120 C   0  0  0  0  0
   12.0370   14.7960  -12.5530 C   0  0  0  0  0
   10.7790   14.0680  -12.4890 C   0  0  0  0  0
   10.5020   14.0170  -11.1370 C   0  0  0  0  0
   11.4780   14.6740  -10.4210 N   0  0  0  0  0
   12.4150   15.1380  -11.2680 C   0  0  0  0  0
   13.5300   15.8160  -10.9460 N   0  0  0  0  0
   14.3090   16.1740  -12.0020 C   0  0  0  0  0
   14.0160   15.9020  -13.3080 N   0  0  0  0  0
   10.5480   14.4520  -14.7630 H   0  0  0  0  0
   10.9300   15.2470  -17.1090 H   0  0  0  0  0
   11.9610   13.8560  -17.4400 H   0  0  0  0  0
    9.0740   11.4120  -17.1340 H   0  0  0  0  0
   10.7380   11.5060  -17.7160 H   0  0  0  0  0
    9.7090   11.7980  -14.8410 H   0  0  0  0  0
   10.9130   10.5960  -15.5100 H   0  0  0  0  0
   11.8760   12.5680  -14.0340 H   0  0  0  0  0
    7.7610   12.4010  -18.5350 H   0  0  0  0  0
    7.4300   12.3990  -16.7800 H   0  0  0  0  0
   12.8730   11.8130  -16.8120 H   0  0  0  0  0
   13.8470   12.6430  -15.5500 H   0  0  0  0  0
   13.2200   10.9850  -15.2560 H   0  0  0  0  0
   13.1280   15.4970  -16.8740 H   0  0  0  0  0
   13.9910   16.3420  -15.5450 H   0  0  0  0  0
   14.4260   14.6510  -15.9650 H   0  0  0  0  0
   10.1990   13.6630  -13.3050 H   0  0  0  0  0
    9.6410   13.5300  -10.7020 H   0  0  0  0  0
   15.2230   16.7110  -11.7930 H   0  0  0  0  0
   11.4890   14.7880   -9.4280 H   0  0  0  0  0
  1  5  1  0  0  0
  1 13  1  0  0  0
  1 24  1  0  0  0
  2  1  1  0  0  0
  2 25  1  0  0  0
  2 26  1  0  0  0
  3  4  1  0  0  0
  3 27  1  0  0  0
  3 28  1  0  0  0
  4  5  1  0  0  0
  4 29  1  0  0  0
  4 30  1  0  0  0
  5 31  1  0  0  0
  6  2  1  0  0  0
  6  3  1  0  0  0
  7  8  2  0  0  0
  8  6  1  0  0  0
  9  8  1  0  0  0
  9 32  1  0  0  0
  9 33  1  0  0  0
 10  9  1  0  0  0
 11 10  3  0  0  0
 12  5  1  0  0  0
 12 34  1  0  0  0
 12 35  1  0  0  0
 12 36  1  0  0  0
 13 15  1  0  0  0
 14 13  1  0  0  0
 14 37  1  0  0  0
 14 38  1  0  0  0
 14 39  1  0  0  0
 15 23  2  0  0  0
 15 16  1  0  0  0
 16 17  1  0  0  0
 16 20  2  0  0  0
 17 18  2  0  0  0
 17 40  1  0  0  0
 18 19  1  0  0  0
 18 41  1  0  0  0
 19 43  1  0  0  0
 20 19  1  0  0  0
 20 21  1  0  0  0
 22 21  2  0  0  0
 22 42  1  0  0  0
 23 22  1  0  0  0
M  END
$$$$
