@<TRIPOS>MOLECULE
3-[4-methyl-3-[methyl(7~{H}-pyrrolo[2,3-d]pyrimidin-4-yl)amino]-1-piperidyl]-3-oxo-propanenitrile
   43    45     1     0     0
SMALL
USER_CHARGES

@<TRIPOS>ATOM
      1 C1         11.4000   14.0760  -15.3490 C.3       1 MI1         0.2458
      2 C2         11.1110   14.1980  -16.8320 C.3       1 MI1         0.0938
      3 C4         10.0430   11.9040  -16.9620 C.3       1 MI1         0.0923
      4 C5         10.5440   11.6320  -15.5380 C.3       1 MI1        -0.0907
      5 C6         11.7130   12.5520  -15.1220 C.3       1 MI1        -0.0843
      6 N3          9.9090   13.3800  -17.0700 N.am      1 MI1        -0.4829
      7 O21         8.6640   15.1600  -17.5640 O.2       1 MI1        -0.5844
      8 C20         8.7790   13.9460  -17.4370 C.2       1 MI1         0.6652
      9 C22         7.5860   13.0420  -17.6590 C.3       1 MI1        -0.0874
     10 C23         6.4020   13.8860  -17.8860 C.1       1 MI1         0.2186
     11 N24         5.4400   14.5060  -18.0770 N.1       1 MI1        -0.3440
     12 C7         13.0070   11.9550  -15.7290 C.3       1 MI1        -0.0896
     13 N8         12.6080   14.8790  -14.9290 N.pl3     1 MI1        -0.8060
     14 C9         13.6000   15.3730  -15.8880 C.3       1 MI1         0.2061
     15 C10        12.8720   15.1980  -13.6120 C.ar      1 MI1         0.7487
     16 C15        12.0370   14.7960  -12.5530 C.ar      1 MI1        -0.3654
     17 C16        10.7790   14.0680  -12.4890 C.ar      1 MI1        -0.1563
     18 C11        10.5020   14.0170  -11.1370 C.ar      1 MI1        -0.0126
     19 N12        11.4780   14.6740  -10.4210 N.pl3     1 MI1        -0.6755
     20 C14        12.4150   15.1380  -11.2680 C.ar      1 MI1         0.5910
     21 N17        13.5300   15.8160  -10.9460 N.ar      1 MI1        -0.7313
     22 C18        14.3090   16.1740  -12.0020 C.ar      1 MI1         0.6731
     23 N19        14.0160   15.9020  -13.3080 N.ar      1 MI1        -0.7844
     24 H1         10.5556   14.4866  -14.7760 H         1 MI1         0.0752
     25 H2         10.9341   15.2537  -17.0854 H         1 MI1         0.0647
     26 H2A        11.9714   13.8225  -17.4054 H         1 MI1         0.0647
     27 H4         10.7727   11.5157  -17.6878 H         1 MI1         0.0451
     28 H4A         9.0749   11.4037  -17.1119 H         1 MI1         0.0451
     29 H5          9.7230   11.7921  -14.8236 H         1 MI1         0.0544
     30 H5A        10.8957   10.5923  -15.4653 H         1 MI1         0.0544
     31 H6         11.8766   12.5459  -14.0343 H         1 MI1         0.0695
     32 H22         7.7678   12.4037  -18.5362 H         1 MI1         0.0937
     33 H22A        7.4342   12.4105  -16.7712 H         1 MI1         0.0937
     34 H7         13.8657   12.5850  -15.4537 H         1 MI1         0.0395
     35 H7A        12.9152   11.9186  -16.8246 H         1 MI1         0.0395
     36 H7B        13.1590   10.9375  -15.3398 H         1 MI1         0.0395
     37 H9         13.3080   15.0726  -16.9051 H         1 MI1         0.0449
     38 H9A        14.5854   14.9469  -15.6485 H         1 MI1         0.0449
     39 H9B        13.6511   16.4703  -15.8302 H         1 MI1         0.0449
     40 H16        10.1990   13.6630  -13.3050 H         1 MI1         0.1585
     41 H11         9.6410   13.5300  -10.7020 H         1 MI1         0.1709
     42 H18        15.2230   16.7110  -11.7930 H         1 MI1         0.0498
     43 HN12       11.4014   14.7475   -9.3261 H         1 MI1         0.4676
@<TRIPOS>BOND
     1    1    5 1
     2    1   13 1
     3    1   24 1
     4    1    2 1
     5    2   25 1
     6    2   26 1
     7    2    6 1
     8    3    4 1
     9    3   27 1
    10    3   28 1
    11    3    6 1
    12    4    5 1
    13    4   29 1
    14    4   30 1
    15    5   31 1
    16    5   12 1
    17    6    8 am
    18    7    8 2
    19    8    9 1
    20    9   32 1
    21    9   33 1
    22    9   10 1
    23   10   11 3
    24   12   34 1
    25   12   35 1
    26   12   36 1
    27   13   15 1
    28   13   14 1
    29   14   37 1
    30   14   38 1
    31   14   39 1
    32   15   23 ar
    33   15   16 ar
    34   16   17 ar
    35   16   20 ar
    36   17   18 ar
    37   17   40 1
    38   18   19 ar
    39   18   41 1
    40   19   43 1
    41   19   20 ar
    42   20   21 ar
    43   21   22 ar
    44   22   42 1
    45   22   23 ar
@<TRIPOS>SUBSTRUCTURE
     1 MI1         1 GROUP   0 A     ****
@<TRIPOS>MOLECULE
3-[3-[3,7-dihydropyrrolo[2,3-d]pyrimidin-4-ylium-4-yl(methyl)amino]-4-methyl-1-piperidyl]-3-oxo-propanenitrile
   44    46     1     0     0
SMALL
USER_CHARGES

@<TRIPOS>ATOM
      1 C1         11.4000   14.0760  -15.3490 C.3       1 MI1         0.2135
      2 C2         11.1110   14.1980  -16.8320 C.3       1 MI1         0.0961
      3 C4         10.0430   11.9040  -16.9620 C.3       1 MI1         0.0892
      4 C5         10.5440   11.6320  -15.5380 C.3       1 MI1        -0.0910
      5 C6         11.7130   12.5520  -15.1220 C.3       1 MI1        -0.0875
      6 N3          9.9090   13.3800  -17.0700 N.am      1 MI1        -0.4954
      7 O21         8.6640   15.1600  -17.5640 O.2       1 MI1        -0.5668
      8 C20         8.7790   13.9460  -17.4370 C.2       1 MI1         0.6717
      9 C22         7.5860   13.0420  -17.6590 C.3       1 MI1        -0.0786
     10 C23         6.4020   13.8860  -17.8860 C.1       1 MI1         0.1994
     11 N24         5.4400   14.5060  -18.0770 N.1       1 MI1        -0.3100
     12 C7         13.0070   11.9550  -15.7290 C.3       1 MI1        -0.0950
     13 N8         12.6080   14.8790  -14.9290 N.pl3     1 MI1        -0.6830
     14 C9         13.6000   15.3730  -15.8880 C.3       1 MI1         0.1783
     15 C10        12.8720   15.1980  -13.6120 C.cat     1 MI1         0.4913
     16 C15        12.0370   14.7960  -12.5530 C.ar      1 MI1        -0.2089
     17 C16        10.7790   14.0680  -12.4890 C.ar      1 MI1        -0.1331
     18 C11        10.5020   14.0170  -11.1370 C.ar      1 MI1        -0.0776
     19 N12        11.4780   14.6740  -10.4210 N.pl3     1 MI1        -0.1367
     20 C14        12.4150   15.1380  -11.2680 C.ar      1 MI1         0.1954
     21 N17        13.5300   15.8160  -10.9460 N.ar      1 MI1        -0.5356
     22 C18        14.3090   16.1740  -12.0020 C.ar      1 MI1         0.6356
     23 N19        14.0160   15.9020  -13.3080 N.pl3     1 MI1        -0.6748
     24 H1         10.5556   14.4866  -14.7760 H         1 MI1         0.0791
     25 H2         10.9341   15.2537  -17.0854 H         1 MI1         0.0760
     26 H2A        11.9714   13.8225  -17.4054 H         1 MI1         0.0760
     27 H4         10.7727   11.5157  -17.6878 H         1 MI1         0.0540
     28 H4A         9.0749   11.4037  -17.1119 H         1 MI1         0.0540
     29 H5          9.7230   11.7921  -14.8236 H         1 MI1         0.0625
     30 H5A        10.8957   10.5923  -15.4653 H         1 MI1         0.0625
     31 H6         11.8766   12.5459  -14.0343 H         1 MI1         0.0791
     32 H22         7.7678   12.4037  -18.5362 H         1 MI1         0.0995
     33 H22A        7.4342   12.4105  -16.7712 H         1 MI1         0.0995
     34 H7         13.8657   12.5850  -15.4537 H         1 MI1         0.0412
     35 H7A        12.9152   11.9186  -16.8246 H         1 MI1         0.0412
     36 H7B        13.1590   10.9375  -15.3398 H         1 MI1         0.0412
     37 H9         13.3080   15.0726  -16.9051 H         1 MI1         0.0656
     38 H9A        14.5854   14.9469  -15.6485 H         1 MI1         0.0656
     39 H9B        13.6511   16.4703  -15.8302 H         1 MI1         0.0656
     40 H16        10.1990   13.6630  -13.3050 H         1 MI1         0.1947
     41 H11         9.6410   13.5300  -10.7020 H         1 MI1         0.2122
     42 H18        15.2230   16.7110  -11.7930 H         1 MI1         0.1049
     43 HN12       11.4014   14.7475   -9.3261 H         1 MI1         0.3450
     44 H44        14.6843   16.2399  -14.1137 H         1 MI1         0.4840
@<TRIPOS>BOND
     1    1    5 1
     2    1   13 1
     3    1   24 1
     4    1    2 1
     5    2   25 1
     6    2   26 1
     7    2    6 1
     8    3    4 1
     9    3   27 1
    10    3   28 1
    11    3    6 1
    12    4    5 1
    13    4   29 1
    14    4   30 1
    15    5   31 1
    16    5   12 1
    17    6    8 am
    18    7    8 2
    19    8    9 1
    20    9   32 1
    21    9   33 1
    22    9   10 1
    23   10   11 3
    24   12   34 1
    25   12   35 1
    26   12   36 1
    27   13   15 1
    28   13   14 1
    29   14   37 1
    30   14   38 1
    31   14   39 1
    32   15   23 ar
    33   15   16 ar
    34   16   17 ar
    35   16   20 ar
    36   17   18 ar
    37   17   40 1
    38   18   19 ar
    39   18   41 1
    40   19   43 1
    41   19   20 ar
    42   20   21 ar
    43   21   22 ar
    44   22   42 1
    45   22   23 ar
    46   23   44 1
@<TRIPOS>SUBSTRUCTURE
     1 MI1         1 GROUP   0 A     ****
