@<TRIPOS>MOLECULE
ZD6
55   58    1
SMALL
USER_CHARGES


@<TRIPOS>ATOM
      1 CAK       -24.6920   15.9600  -13.5540 C.3       1 ZD6         0.0000 
      2 CAM       -25.6660   17.1090  -13.8300 C.3       1 ZD6         0.0000 
      3 NBD       -26.2060   17.7350  -12.5960 N.4       1 ZD6         0.0000 
      4 CAB       -27.4810   18.3480  -13.0230 C.3       1 ZD6         0.0000 
      5 CAN       -26.5500   16.8150  -11.4660 C.3       1 ZD6         0.0000 
      6 CAL       -25.5480   15.6720  -11.2810 C.3       1 ZD6         0.0000 
      7 CBC       -25.3120   14.9490  -12.6080 C.3       1 ZD6         0.0000 
      8 CAO       -24.3880   13.7520  -12.4290 C.3       1 ZD6         0.0000 
      9 OAT       -25.2470   12.7670  -11.8870 O.3       1 ZD6         0.0000 
     10 CAY       -24.7220   11.5280  -11.6550 C.ar      1 ZD6         0.0000 
     11 CAI       -23.5000   11.1130  -12.1550 C.ar      1 ZD6         0.0000 
     12 CAX       -25.4840   10.6690  -10.8840 C.ar      1 ZD6         0.0000 
     13 OAS       -26.6940   11.1710  -10.4290 O.3       1 ZD6         0.0000 
     14 CAA       -27.4580   10.4010   -9.4730 C.3       1 ZD6         0.0000 
     15 CAJ       -25.0120    9.3770  -10.6250 C.ar      1 ZD6         0.0000 
     16 C5        -23.7800    8.9600  -11.1360 C.ar      1 ZD6         0.0000 
     17 C4        -23.0230    9.8400  -11.8940 C.ar      1 ZD6         0.0000 
     18 N3        -21.8330    9.4340  -12.4010 N.ar      1 ZD6         0.0000 
     19 C2        -21.3730    8.2090  -12.1660 C.ar      1 ZD6         0.0000 
     20 N1        -22.0550    7.3510  -11.4160 N.ar      1 ZD6         0.0000 
     21 C6        -23.2520    7.6690  -10.8930 C.ar      1 ZD6         0.0000 
     22 NAR       -23.9680    6.7080  -10.1040 N.pl3     1 ZD6         0.0000 
     23 CAW       -23.3730    5.4880   -9.7110 C.ar      1 ZD6         0.0000 
     24 CAF       -23.9320    4.2780  -10.0880 C.ar      1 ZD6         0.0000 
     25 CAE       -23.3430    3.0920   -9.6630 C.ar      1 ZD6         0.0000 
     26 CAU       -22.1950    3.1520   -8.8700 C.ar      1 ZD6         0.0000 
     27 BR        -21.2330    1.6390   -8.2120 Br        1 ZD6         0.0000 
     28 CAH       -21.6590    4.3550   -8.5000 C.ar      1 ZD6         0.0000 
     29 CAV       -22.2380    5.5040   -8.9150 C.ar      1 ZD6         0.0000 
     30 FAC       -21.6440    6.6220   -8.4900 F         1 ZD6         0.0000 
     31 H1        -23.7761   16.3701  -13.1034 H         1 ZD6         0.0000 
     32 H2        -24.4436   15.4674  -14.5057 H         1 ZD6         0.0000 
     33 H3        -25.1521   17.8960  -14.4015 H         1 ZD6         0.0000 
     34 H4        -26.5213   16.7332  -14.4108 H         1 ZD6         0.0000 
     35 H6        -27.2938   19.0399  -13.8574 H         1 ZD6         0.0000 
     36 H7        -27.9225   18.9005  -12.1805 H         1 ZD6         0.0000 
     37 H8        -28.1757   17.5599  -13.3490 H         1 ZD6         0.0000 
     38 H9        -26.5771   17.3841  -10.5251 H         1 ZD6         0.0000 
     39 H10       -27.5356   16.3620  -11.6490 H         1 ZD6         0.0000 
     40 H11       -24.5917   16.0777  -10.9194 H         1 ZD6         0.0000 
     41 H12       -25.9425   14.9537  -10.5472 H         1 ZD6         0.0000 
     42 H13       -26.2581   14.5606  -13.0131 H         1 ZD6         0.0000 
     43 H14       -23.9723   13.4606  -13.4048 H         1 ZD6         0.0000 
     44 H15       -23.5681   14.0205  -11.7466 H         1 ZD6         0.0000 
     45 H16       -22.9120   11.7900  -12.7560 H         1 ZD6         0.0000 
     46 H17       -28.3825   10.9416   -9.2219 H         1 ZD6         0.0000 
     47 H18       -26.8610   10.2523   -8.5611 H         1 ZD6         0.0000 
     48 H19       -27.7117    9.4233   -9.9087 H         1 ZD6         0.0000 
     49 H20       -25.6030    8.6990  -10.0270 H         1 ZD6         0.0000 
     50 H21       -20.4280    7.9060  -12.5920 H         1 ZD6         0.0000 
     51 H22       -25.0026    6.9137   -9.7922 H         1 ZD6         0.0000 
     52 H23       -24.8170    4.2560  -10.7060 H         1 ZD6         0.0000 
     53 H24       -23.7670    2.1390   -9.9420 H         1 ZD6         0.0000 
     54 H25       -20.7760    4.3870   -7.8780 H         1 ZD6         0.0000 
     55 H55       -25.4262   18.4093  -12.2122 H         1 ZD6         0.0000 
@<TRIPOS>BOND
     1    1    7 1    
     2    1   31 1    
     3    1   32 1    
     4    1    2 1    
     5    2    3 1    
     6    2   33 1    
     7    2   34 1    
     8    3    5 1    
     9    3    4 1    
    10    3   55 1    
    11    4   35 1    
    12    4   36 1    
    13    4   37 1    
    14    5    6 1    
    15    5   38 1    
    16    5   39 1    
    17    6   40 1    
    18    6   41 1    
    19    6    7 1    
    20    7    8 1    
    21    7   42 1    
    22    8    9 1    
    23    8   43 1    
    24    8   44 1    
    25    9   10 1    
    26   10   12 ar   
    27   10   11 ar   
    28   11   17 ar   
    29   11   45 1    
    30   12   15 ar   
    31   12   13 1    
    32   13   14 1    
    33   14   46 1    
    34   14   47 1    
    35   14   48 1    
    36   15   49 1    
    37   15   16 ar   
    38   16   21 ar   
    39   16   17 ar   
    40   17   18 ar   
    41   18   19 ar   
    42   19   20 ar   
    43   19   50 1    
    44   20   21 ar   
    45   21   22 1    
    46   22   23 1    
    47   22   51 1    
    48   23   29 ar   
    49   23   24 ar   
    50   24   25 ar   
    51   24   52 1    
    52   25   26 ar   
    53   25   53 1    
    54   26   28 ar   
    55   26   27 1    
    56   28   54 1    
    57   28   29 ar   
    58   29   30 1    
@<TRIPOS>SUBSTRUCTURE
     1 ZD6         1 GROUP             0       ****    0 ROOT    
@<TRIPOS>MOLECULE
ZD6
54   57    1
SMALL
USER_CHARGES


@<TRIPOS>ATOM
      1 CAK       -24.6920   15.9600  -13.5540 C.3       1 ZD6         0.0000 
      2 CAM       -25.6660   17.1090  -13.8300 C.3       1 ZD6         0.0000 
      3 NBD       -26.2060   17.7350  -12.5960 N.3       1 ZD6         0.0000 
      4 CAB       -27.4810   18.3480  -13.0230 C.3       1 ZD6         0.0000 
      5 CAN       -26.5500   16.8150  -11.4660 C.3       1 ZD6         0.0000 
      6 CAL       -25.5480   15.6720  -11.2810 C.3       1 ZD6         0.0000 
      7 CBC       -25.3120   14.9490  -12.6080 C.3       1 ZD6         0.0000 
      8 CAO       -24.3880   13.7520  -12.4290 C.3       1 ZD6         0.0000 
      9 OAT       -25.2470   12.7670  -11.8870 O.3       1 ZD6         0.0000 
     10 CAY       -24.7220   11.5280  -11.6550 C.ar      1 ZD6         0.0000 
     11 CAI       -23.5000   11.1130  -12.1550 C.ar      1 ZD6         0.0000 
     12 CAX       -25.4840   10.6690  -10.8840 C.ar      1 ZD6         0.0000 
     13 OAS       -26.6940   11.1710  -10.4290 O.3       1 ZD6         0.0000 
     14 CAA       -27.4580   10.4010   -9.4730 C.3       1 ZD6         0.0000 
     15 CAJ       -25.0120    9.3770  -10.6250 C.ar      1 ZD6         0.0000 
     16 C5        -23.7800    8.9600  -11.1360 C.ar      1 ZD6         0.0000 
     17 C4        -23.0230    9.8400  -11.8940 C.ar      1 ZD6         0.0000 
     18 N3        -21.8330    9.4340  -12.4010 N.ar      1 ZD6         0.0000 
     19 C2        -21.3730    8.2090  -12.1660 C.ar      1 ZD6         0.0000 
     20 N1        -22.0550    7.3510  -11.4160 N.ar      1 ZD6         0.0000 
     21 C6        -23.2520    7.6690  -10.8930 C.ar      1 ZD6         0.0000 
     22 NAR       -23.9680    6.7080  -10.1040 N.pl3     1 ZD6         0.0000 
     23 CAW       -23.3730    5.4880   -9.7110 C.ar      1 ZD6         0.0000 
     24 CAF       -23.9320    4.2780  -10.0880 C.ar      1 ZD6         0.0000 
     25 CAE       -23.3430    3.0920   -9.6630 C.ar      1 ZD6         0.0000 
     26 CAU       -22.1950    3.1520   -8.8700 C.ar      1 ZD6         0.0000 
     27 BR        -21.2330    1.6390   -8.2120 Br        1 ZD6         0.0000 
     28 CAH       -21.6590    4.3550   -8.5000 C.ar      1 ZD6         0.0000 
     29 CAV       -22.2380    5.5040   -8.9150 C.ar      1 ZD6         0.0000 
     30 FAC       -21.6440    6.6220   -8.4900 F         1 ZD6         0.0000 
     31 H1        -23.7761   16.3701  -13.1034 H         1 ZD6         0.0000 
     32 H2        -24.4436   15.4674  -14.5057 H         1 ZD6         0.0000 
     33 H3        -25.1521   17.8960  -14.4015 H         1 ZD6         0.0000 
     34 H4        -26.5213   16.7332  -14.4108 H         1 ZD6         0.0000 
     35 H6        -27.2938   19.0399  -13.8574 H         1 ZD6         0.0000 
     36 H7        -27.9225   18.9005  -12.1805 H         1 ZD6         0.0000 
     37 H8        -28.1757   17.5599  -13.3490 H         1 ZD6         0.0000 
     38 H9        -26.5771   17.3841  -10.5251 H         1 ZD6         0.0000 
     39 H10       -27.5356   16.3620  -11.6490 H         1 ZD6         0.0000 
     40 H11       -24.5917   16.0777  -10.9194 H         1 ZD6         0.0000 
     41 H12       -25.9425   14.9537  -10.5472 H         1 ZD6         0.0000 
     42 H13       -26.2581   14.5606  -13.0131 H         1 ZD6         0.0000 
     43 H14       -23.9723   13.4606  -13.4048 H         1 ZD6         0.0000 
     44 H15       -23.5681   14.0205  -11.7466 H         1 ZD6         0.0000 
     45 H16       -22.9120   11.7900  -12.7560 H         1 ZD6         0.0000 
     46 H17       -28.3825   10.9416   -9.2219 H         1 ZD6         0.0000 
     47 H18       -26.8610   10.2523   -8.5611 H         1 ZD6         0.0000 
     48 H19       -27.7117    9.4233   -9.9087 H         1 ZD6         0.0000 
     49 H20       -25.6030    8.6990  -10.0270 H         1 ZD6         0.0000 
     50 H21       -20.4280    7.9060  -12.5920 H         1 ZD6         0.0000 
     51 H22       -25.0026    6.9137   -9.7922 H         1 ZD6         0.0000 
     52 H23       -24.8170    4.2560  -10.7060 H         1 ZD6         0.0000 
     53 H24       -23.7670    2.1390   -9.9420 H         1 ZD6         0.0000 
     54 H25       -20.7760    4.3870   -7.8780 H         1 ZD6         0.0000 
@<TRIPOS>BOND
     1    1    7 1    
     2    1   31 1    
     3    1   32 1    
     4    1    2 1    
     5    2    3 1    
     6    2   33 1    
     7    2   34 1    
     8    3    5 1    
     9    3    4 1    
    10    4   35 1    
    11    4   36 1    
    12    4   37 1    
    13    5    6 1    
    14    5   38 1    
    15    5   39 1    
    16    6   40 1    
    17    6   41 1    
    18    6    7 1    
    19    7    8 1    
    20    7   42 1    
    21    8    9 1    
    22    8   43 1    
    23    8   44 1    
    24    9   10 1    
    25   10   12 ar   
    26   10   11 ar   
    27   11   17 ar   
    28   11   45 1    
    29   12   15 ar   
    30   12   13 1    
    31   13   14 1    
    32   14   46 1    
    33   14   47 1    
    34   14   48 1    
    35   15   49 1    
    36   15   16 ar   
    37   16   21 ar   
    38   16   17 ar   
    39   17   18 ar   
    40   18   19 ar   
    41   19   20 ar   
    42   19   50 1    
    43   20   21 ar   
    44   21   22 1    
    45   22   23 1    
    46   22   51 1    
    47   23   29 ar   
    48   23   24 ar   
    49   24   25 ar   
    50   24   52 1    
    51   25   26 ar   
    52   25   53 1    
    53   26   28 ar   
    54   26   27 1    
    55   28   54 1    
    56   28   29 ar   
    57   29   30 1    
@<TRIPOS>SUBSTRUCTURE
     1 ZD6         1 GROUP             0       ****    0 ROOT    
@<TRIPOS>MOLECULE
ZD6
56   59    1
SMALL
USER_CHARGES


@<TRIPOS>ATOM
      1 CAK       -24.6920   15.9600  -13.5540 C.3       1 ZD6         0.0000 
      2 CAM       -25.6660   17.1090  -13.8300 C.3       1 ZD6         0.0000 
      3 NBD       -26.2060   17.7350  -12.5960 N.4       1 ZD6         0.0000 
      4 CAB       -27.4810   18.3480  -13.0230 C.3       1 ZD6         0.0000 
      5 CAN       -26.5500   16.8150  -11.4660 C.3       1 ZD6         0.0000 
      6 CAL       -25.5480   15.6720  -11.2810 C.3       1 ZD6         0.0000 
      7 CBC       -25.3120   14.9490  -12.6080 C.3       1 ZD6         0.0000 
      8 CAO       -24.3880   13.7520  -12.4290 C.3       1 ZD6         0.0000 
      9 OAT       -25.2470   12.7670  -11.8870 O.3       1 ZD6         0.0000 
     10 CAY       -24.7220   11.5280  -11.6550 C.ar      1 ZD6         0.0000 
     11 CAI       -23.5000   11.1130  -12.1550 C.ar      1 ZD6         0.0000 
     12 CAX       -25.4840   10.6690  -10.8840 C.ar      1 ZD6         0.0000 
     13 OAS       -26.6940   11.1710  -10.4290 O.3       1 ZD6         0.0000 
     14 CAA       -27.4580   10.4010   -9.4730 C.3       1 ZD6         0.0000 
     15 CAJ       -25.0120    9.3770  -10.6250 C.ar      1 ZD6         0.0000 
     16 C5        -23.7800    8.9600  -11.1360 C.ar      1 ZD6         0.0000 
     17 C4        -23.0230    9.8400  -11.8940 C.ar      1 ZD6         0.0000 
     18 N3        -21.8330    9.4340  -12.4010 N.pl3     1 ZD6         0.0000 
     19 C2        -21.3730    8.2090  -12.1660 C.ar      1 ZD6         0.0000 
     20 N1        -22.0550    7.3510  -11.4160 N.2       1 ZD6         0.0000 
     21 C6        -23.2520    7.6690  -10.8930 C.ar      1 ZD6         0.0000 
     22 NAR       -23.9680    6.7080  -10.1040 N.pl3     1 ZD6         0.0000 
     23 CAW       -23.3730    5.4880   -9.7110 C.ar      1 ZD6         0.0000 
     24 CAF       -23.9320    4.2780  -10.0880 C.ar      1 ZD6         0.0000 
     25 CAE       -23.3430    3.0920   -9.6630 C.ar      1 ZD6         0.0000 
     26 CAU       -22.1950    3.1520   -8.8700 C.ar      1 ZD6         0.0000 
     27 BR        -21.2330    1.6390   -8.2120 Br        1 ZD6         0.0000 
     28 CAH       -21.6590    4.3550   -8.5000 C.ar      1 ZD6         0.0000 
     29 CAV       -22.2380    5.5040   -8.9150 C.ar      1 ZD6         0.0000 
     30 FAC       -21.6440    6.6220   -8.4900 F         1 ZD6         0.0000 
     31 H1        -23.7761   16.3701  -13.1034 H         1 ZD6         0.0000 
     32 H2        -24.4436   15.4674  -14.5057 H         1 ZD6         0.0000 
     33 H3        -25.1521   17.8960  -14.4015 H         1 ZD6         0.0000 
     34 H4        -26.5213   16.7332  -14.4108 H         1 ZD6         0.0000 
     35 H6        -27.2938   19.0399  -13.8574 H         1 ZD6         0.0000 
     36 H7        -27.9225   18.9005  -12.1805 H         1 ZD6         0.0000 
     37 H8        -28.1757   17.5599  -13.3490 H         1 ZD6         0.0000 
     38 H9        -26.5771   17.3841  -10.5251 H         1 ZD6         0.0000 
     39 H10       -27.5356   16.3620  -11.6490 H         1 ZD6         0.0000 
     40 H11       -24.5917   16.0777  -10.9194 H         1 ZD6         0.0000 
     41 H12       -25.9425   14.9537  -10.5472 H         1 ZD6         0.0000 
     42 H13       -26.2581   14.5606  -13.0131 H         1 ZD6         0.0000 
     43 H14       -23.9723   13.4606  -13.4048 H         1 ZD6         0.0000 
     44 H15       -23.5681   14.0205  -11.7466 H         1 ZD6         0.0000 
     45 H16       -22.9120   11.7900  -12.7560 H         1 ZD6         0.0000 
     46 H17       -28.3825   10.9416   -9.2219 H         1 ZD6         0.0000 
     47 H18       -26.8610   10.2523   -8.5611 H         1 ZD6         0.0000 
     48 H19       -27.7117    9.4233   -9.9087 H         1 ZD6         0.0000 
     49 H20       -25.6030    8.6990  -10.0270 H         1 ZD6         0.0000 
     50 H21       -20.4280    7.9060  -12.5920 H         1 ZD6         0.0000 
     51 H23       -24.8170    4.2560  -10.7060 H         1 ZD6         0.0000 
     52 H24       -23.7670    2.1390   -9.9420 H         1 ZD6         0.0000 
     53 H25       -20.7760    4.3870   -7.8780 H         1 ZD6         0.0000 
     54 H54       -25.4262   18.4093  -12.2122 H         1 ZD6         0.0000 
     55 H55       -21.2339   10.1215  -13.0161 H         1 ZD6         0.0000 
     56 H56       -25.0026    6.9137   -9.7922 H         1 ZD6         0.0000 
@<TRIPOS>BOND
     1    1    7 1    
     2    1   31 1    
     3    1   32 1    
     4    1    2 1    
     5    2    3 1    
     6    2   33 1    
     7    2   34 1    
     8    3    5 1    
     9    3    4 1    
    10    3   54 1    
    11    4   35 1    
    12    4   36 1    
    13    4   37 1    
    14    5    6 1    
    15    5   38 1    
    16    5   39 1    
    17    6   40 1    
    18    6   41 1    
    19    6    7 1    
    20    7    8 1    
    21    7   42 1    
    22    8    9 1    
    23    8   43 1    
    24    8   44 1    
    25    9   10 1    
    26   10   12 ar   
    27   10   11 ar   
    28   11   17 ar   
    29   11   45 1    
    30   12   15 ar   
    31   12   13 1    
    32   13   14 1    
    33   14   46 1    
    34   14   47 1    
    35   14   48 1    
    36   15   49 1    
    37   15   16 ar   
    38   16   21 ar   
    39   16   17 ar   
    40   17   18 ar   
    41   18   19 ar   
    42   18   55 1    
    43   19   20 ar   
    44   19   50 1    
    45   20   21 ar   
    46   21   22 2    
    47   22   23 1    
    48   22   56 1    
    49   23   29 ar   
    50   23   24 ar   
    51   24   25 ar   
    52   24   51 1    
    53   25   26 ar   
    54   25   52 1    
    55   26   28 ar   
    56   26   27 1    
    57   28   53 1    
    58   28   29 ar   
    59   29   30 1    
@<TRIPOS>SUBSTRUCTURE
     1 ZD6         1 GROUP             0       ****    0 ROOT    
@<TRIPOS>MOLECULE
ZD6
56   59    1
SMALL
USER_CHARGES


@<TRIPOS>ATOM
      1 CAK       -24.6920   15.9600  -13.5540 C.3       1 ZD6         0.0000 
      2 CAM       -25.6660   17.1090  -13.8300 C.3       1 ZD6         0.0000 
      3 NBD       -26.2060   17.7350  -12.5960 N.4       1 ZD6         0.0000 
      4 CAB       -27.4810   18.3480  -13.0230 C.3       1 ZD6         0.0000 
      5 CAN       -26.5500   16.8150  -11.4660 C.3       1 ZD6         0.0000 
      6 CAL       -25.5480   15.6720  -11.2810 C.3       1 ZD6         0.0000 
      7 CBC       -25.3120   14.9490  -12.6080 C.3       1 ZD6         0.0000 
      8 CAO       -24.3880   13.7520  -12.4290 C.3       1 ZD6         0.0000 
      9 OAT       -25.2470   12.7670  -11.8870 O.3       1 ZD6         0.0000 
     10 CAY       -24.7220   11.5280  -11.6550 C.ar      1 ZD6         0.0000 
     11 CAI       -23.5000   11.1130  -12.1550 C.ar      1 ZD6         0.0000 
     12 CAX       -25.4840   10.6690  -10.8840 C.ar      1 ZD6         0.0000 
     13 OAS       -26.6940   11.1710  -10.4290 O.3       1 ZD6         0.0000 
     14 CAA       -27.4580   10.4010   -9.4730 C.3       1 ZD6         0.0000 
     15 CAJ       -25.0120    9.3770  -10.6250 C.ar      1 ZD6         0.0000 
     16 C5        -23.7800    8.9600  -11.1360 C.ar      1 ZD6         0.0000 
     17 C4        -23.0230    9.8400  -11.8940 C.ar      1 ZD6         0.0000 
     18 N3        -21.8330    9.4340  -12.4010 N.pl3     1 ZD6         0.0000 
     19 C2        -21.3730    8.2090  -12.1660 C.ar      1 ZD6         0.0000 
     20 N1        -22.0550    7.3510  -11.4160 N.ar      1 ZD6         0.0000 
     21 C6        -23.2520    7.6690  -10.8930 C.ar      1 ZD6         0.0000 
     22 NAR       -23.9680    6.7080  -10.1040 N.pl3     1 ZD6         0.0000 
     23 CAW       -23.3730    5.4880   -9.7110 C.ar      1 ZD6         0.0000 
     24 CAF       -23.9320    4.2780  -10.0880 C.ar      1 ZD6         0.0000 
     25 CAE       -23.3430    3.0920   -9.6630 C.ar      1 ZD6         0.0000 
     26 CAU       -22.1950    3.1520   -8.8700 C.ar      1 ZD6         0.0000 
     27 BR        -21.2330    1.6390   -8.2120 Br        1 ZD6         0.0000 
     28 CAH       -21.6590    4.3550   -8.5000 C.ar      1 ZD6         0.0000 
     29 CAV       -22.2380    5.5040   -8.9150 C.ar      1 ZD6         0.0000 
     30 FAC       -21.6440    6.6220   -8.4900 F         1 ZD6         0.0000 
     31 H1        -23.7761   16.3701  -13.1034 H         1 ZD6         0.0000 
     32 H2        -24.4436   15.4674  -14.5057 H         1 ZD6         0.0000 
     33 H3        -25.1521   17.8960  -14.4015 H         1 ZD6         0.0000 
     34 H4        -26.5213   16.7332  -14.4108 H         1 ZD6         0.0000 
     35 H6        -27.2938   19.0399  -13.8574 H         1 ZD6         0.0000 
     36 H7        -27.9225   18.9005  -12.1805 H         1 ZD6         0.0000 
     37 H8        -28.1757   17.5599  -13.3490 H         1 ZD6         0.0000 
     38 H9        -26.5771   17.3841  -10.5251 H         1 ZD6         0.0000 
     39 H10       -27.5356   16.3620  -11.6490 H         1 ZD6         0.0000 
     40 H11       -24.5917   16.0777  -10.9194 H         1 ZD6         0.0000 
     41 H12       -25.9425   14.9537  -10.5472 H         1 ZD6         0.0000 
     42 H13       -26.2581   14.5606  -13.0131 H         1 ZD6         0.0000 
     43 H14       -23.9723   13.4606  -13.4048 H         1 ZD6         0.0000 
     44 H15       -23.5681   14.0205  -11.7466 H         1 ZD6         0.0000 
     45 H16       -22.9120   11.7900  -12.7560 H         1 ZD6         0.0000 
     46 H17       -28.3825   10.9416   -9.2219 H         1 ZD6         0.0000 
     47 H18       -26.8610   10.2523   -8.5611 H         1 ZD6         0.0000 
     48 H19       -27.7117    9.4233   -9.9087 H         1 ZD6         0.0000 
     49 H20       -25.6030    8.6990  -10.0270 H         1 ZD6         0.0000 
     50 H21       -20.4280    7.9060  -12.5920 H         1 ZD6         0.0000 
     51 H22       -25.0026    6.9137   -9.7922 H         1 ZD6         0.0000 
     52 H23       -24.8170    4.2560  -10.7060 H         1 ZD6         0.0000 
     53 H24       -23.7670    2.1390   -9.9420 H         1 ZD6         0.0000 
     54 H25       -20.7760    4.3870   -7.8780 H         1 ZD6         0.0000 
     55 H55       -25.4262   18.4093  -12.2122 H         1 ZD6         0.0000 
     56 H56       -21.2339   10.1215  -13.0161 H         1 ZD6         0.0000 
@<TRIPOS>BOND
     1    1    7 1    
     2    1   31 1    
     3    1   32 1    
     4    1    2 1    
     5    2    3 1    
     6    2   33 1    
     7    2   34 1    
     8    3    5 1    
     9    3    4 1    
    10    3   55 1    
    11    4   35 1    
    12    4   36 1    
    13    4   37 1    
    14    5    6 1    
    15    5   38 1    
    16    5   39 1    
    17    6   40 1    
    18    6   41 1    
    19    6    7 1    
    20    7    8 1    
    21    7   42 1    
    22    8    9 1    
    23    8   43 1    
    24    8   44 1    
    25    9   10 1    
    26   10   12 ar   
    27   10   11 ar   
    28   11   17 ar   
    29   11   45 1    
    30   12   15 ar   
    31   12   13 1    
    32   13   14 1    
    33   14   46 1    
    34   14   47 1    
    35   14   48 1    
    36   15   49 1    
    37   15   16 ar   
    38   16   21 ar   
    39   16   17 ar   
    40   17   18 ar   
    41   18   19 ar   
    42   18   56 1    
    43   19   20 ar   
    44   19   50 1    
    45   20   21 ar   
    46   21   22 1    
    47   22   23 1    
    48   22   51 1    
    49   23   29 ar   
    50   23   24 ar   
    51   24   25 ar   
    52   24   52 1    
    53   25   26 ar   
    54   25   53 1    
    55   26   28 ar   
    56   26   27 1    
    57   28   54 1    
    58   28   29 ar   
    59   29   30 1    
@<TRIPOS>SUBSTRUCTURE
     1 ZD6         1 GROUP             0       ****    0 ROOT    
@<TRIPOS>MOLECULE
ZD6
56   59    1
SMALL
USER_CHARGES


@<TRIPOS>ATOM
      1 CAK       -24.6920   15.9600  -13.5540 C.3       1 ZD6         0.0000 
      2 CAM       -25.6660   17.1090  -13.8300 C.3       1 ZD6         0.0000 
      3 NBD       -26.2060   17.7350  -12.5960 N.4       1 ZD6         0.0000 
      4 CAB       -27.4810   18.3480  -13.0230 C.3       1 ZD6         0.0000 
      5 CAN       -26.5500   16.8150  -11.4660 C.3       1 ZD6         0.0000 
      6 CAL       -25.5480   15.6720  -11.2810 C.3       1 ZD6         0.0000 
      7 CBC       -25.3120   14.9490  -12.6080 C.3       1 ZD6         0.0000 
      8 CAO       -24.3880   13.7520  -12.4290 C.3       1 ZD6         0.0000 
      9 OAT       -25.2470   12.7670  -11.8870 O.3       1 ZD6         0.0000 
     10 CAY       -24.7220   11.5280  -11.6550 C.ar      1 ZD6         0.0000 
     11 CAI       -23.5000   11.1130  -12.1550 C.ar      1 ZD6         0.0000 
     12 CAX       -25.4840   10.6690  -10.8840 C.ar      1 ZD6         0.0000 
     13 OAS       -26.6940   11.1710  -10.4290 O.3       1 ZD6         0.0000 
     14 CAA       -27.4580   10.4010   -9.4730 C.3       1 ZD6         0.0000 
     15 CAJ       -25.0120    9.3770  -10.6250 C.ar      1 ZD6         0.0000 
     16 C5        -23.7800    8.9600  -11.1360 C.ar      1 ZD6         0.0000 
     17 C4        -23.0230    9.8400  -11.8940 C.ar      1 ZD6         0.0000 
     18 N3        -21.8330    9.4340  -12.4010 N.ar      1 ZD6         0.0000 
     19 C2        -21.3730    8.2090  -12.1660 C.ar      1 ZD6         0.0000 
     20 N1        -22.0550    7.3510  -11.4160 N.pl3     1 ZD6         0.0000 
     21 C6        -23.2520    7.6690  -10.8930 C.ar      1 ZD6         0.0000 
     22 NAR       -23.9680    6.7080  -10.1040 N.pl3     1 ZD6         0.0000 
     23 CAW       -23.3730    5.4880   -9.7110 C.ar      1 ZD6         0.0000 
     24 CAF       -23.9320    4.2780  -10.0880 C.ar      1 ZD6         0.0000 
     25 CAE       -23.3430    3.0920   -9.6630 C.ar      1 ZD6         0.0000 
     26 CAU       -22.1950    3.1520   -8.8700 C.ar      1 ZD6         0.0000 
     27 BR        -21.2330    1.6390   -8.2120 Br        1 ZD6         0.0000 
     28 CAH       -21.6590    4.3550   -8.5000 C.ar      1 ZD6         0.0000 
     29 CAV       -22.2380    5.5040   -8.9150 C.ar      1 ZD6         0.0000 
     30 FAC       -21.6440    6.6220   -8.4900 F         1 ZD6         0.0000 
     31 H1        -23.7761   16.3701  -13.1034 H         1 ZD6         0.0000 
     32 H2        -24.4436   15.4674  -14.5057 H         1 ZD6         0.0000 
     33 H3        -25.1521   17.8960  -14.4015 H         1 ZD6         0.0000 
     34 H4        -26.5213   16.7332  -14.4108 H         1 ZD6         0.0000 
     35 H6        -27.2938   19.0399  -13.8574 H         1 ZD6         0.0000 
     36 H7        -27.9225   18.9005  -12.1805 H         1 ZD6         0.0000 
     37 H8        -28.1757   17.5599  -13.3490 H         1 ZD6         0.0000 
     38 H9        -26.5771   17.3841  -10.5251 H         1 ZD6         0.0000 
     39 H10       -27.5356   16.3620  -11.6490 H         1 ZD6         0.0000 
     40 H11       -24.5917   16.0777  -10.9194 H         1 ZD6         0.0000 
     41 H12       -25.9425   14.9537  -10.5472 H         1 ZD6         0.0000 
     42 H13       -26.2581   14.5606  -13.0131 H         1 ZD6         0.0000 
     43 H14       -23.9723   13.4606  -13.4048 H         1 ZD6         0.0000 
     44 H15       -23.5681   14.0205  -11.7466 H         1 ZD6         0.0000 
     45 H16       -22.9120   11.7900  -12.7560 H         1 ZD6         0.0000 
     46 H17       -28.3825   10.9416   -9.2219 H         1 ZD6         0.0000 
     47 H18       -26.8610   10.2523   -8.5611 H         1 ZD6         0.0000 
     48 H19       -27.7117    9.4233   -9.9087 H         1 ZD6         0.0000 
     49 H20       -25.6030    8.6990  -10.0270 H         1 ZD6         0.0000 
     50 H21       -20.4280    7.9060  -12.5920 H         1 ZD6         0.0000 
     51 H22       -25.0026    6.9137   -9.7922 H         1 ZD6         0.0000 
     52 H23       -24.8170    4.2560  -10.7060 H         1 ZD6         0.0000 
     53 H24       -23.7670    2.1390   -9.9420 H         1 ZD6         0.0000 
     54 H25       -20.7760    4.3870   -7.8780 H         1 ZD6         0.0000 
     55 H55       -25.4262   18.4093  -12.2122 H         1 ZD6         0.0000 
     56 H56       -21.6426    6.3524  -11.2095 H         1 ZD6         0.0000 
@<TRIPOS>BOND
     1    1    7 1    
     2    1   31 1    
     3    1   32 1    
     4    1    2 1    
     5    2    3 1    
     6    2   33 1    
     7    2   34 1    
     8    3    5 1    
     9    3    4 1    
    10    3   55 1    
    11    4   35 1    
    12    4   36 1    
    13    4   37 1    
    14    5    6 1    
    15    5   38 1    
    16    5   39 1    
    17    6   40 1    
    18    6   41 1    
    19    6    7 1    
    20    7    8 1    
    21    7   42 1    
    22    8    9 1    
    23    8   43 1    
    24    8   44 1    
    25    9   10 1    
    26   10   12 ar   
    27   10   11 ar   
    28   11   17 ar   
    29   11   45 1    
    30   12   15 ar   
    31   12   13 1    
    32   13   14 1    
    33   14   46 1    
    34   14   47 1    
    35   14   48 1    
    36   15   49 1    
    37   15   16 ar   
    38   16   21 ar   
    39   16   17 ar   
    40   17   18 ar   
    41   18   19 ar   
    42   19   20 ar   
    43   19   50 1    
    44   20   21 ar   
    45   20   56 1    
    46   21   22 1    
    47   22   23 1    
    48   22   51 1    
    49   23   29 ar   
    50   23   24 ar   
    51   24   25 ar   
    52   24   52 1    
    53   25   26 ar   
    54   25   53 1    
    55   26   28 ar   
    56   26   27 1    
    57   28   54 1    
    58   28   29 ar   
    59   29   30 1    
@<TRIPOS>SUBSTRUCTURE
     1 ZD6         1 GROUP             0       ****    0 ROOT    
