ZD6
  CCTOOLS-0721180807

 54 57  0  0  0  0  0  0  0  0999 V2000
  -24.6920   15.9600  -13.5540 C   0  0  0  0  0
  -25.6660   17.1090  -13.8300 C   0  0  0  0  0
  -26.2060   17.7350  -12.5960 N   0  0  0  0  0
  -27.4810   18.3480  -13.0230 C   0  0  0  0  0
  -26.5500   16.8150  -11.4660 C   0  0  0  0  0
  -25.5480   15.6720  -11.2810 C   0  0  0  0  0
  -25.3120   14.9490  -12.6080 C   0  0  0  0  0
  -24.3880   13.7520  -12.4290 C   0  0  0  0  0
  -25.2470   12.7670  -11.8870 O   0  0  0  0  0
  -24.7220   11.5280  -11.6550 C   0  0  0  0  0
  -23.5000   11.1130  -12.1550 C   0  0  0  0  0
  -25.4840   10.6690  -10.8840 C   0  0  0  0  0
  -26.6940   11.1710  -10.4290 O   0  0  0  0  0
  -27.4580   10.4010   -9.4730 C   0  0  0  0  0
  -25.0120    9.3770  -10.6250 C   0  0  0  0  0
  -23.7800    8.9600  -11.1360 C   0  0  0  0  0
  -23.0230    9.8400  -11.8940 C   0  0  0  0  0
  -21.8330    9.4340  -12.4010 N   0  0  0  0  0
  -21.3730    8.2090  -12.1660 C   0  0  0  0  0
  -22.0550    7.3510  -11.4160 N   0  0  0  0  0
  -23.2520    7.6690  -10.8930 C   0  0  0  0  0
  -23.9680    6.7080  -10.1040 N   0  0  0  0  0
  -23.3730    5.4880   -9.7110 C   0  0  0  0  0
  -23.9320    4.2780  -10.0880 C   0  0  0  0  0
  -23.3430    3.0920   -9.6630 C   0  0  0  0  0
  -22.1950    3.1520   -8.8700 C   0  0  0  0  0
  -21.2330    1.6390   -8.2120 BR  0  0  0  0  0
  -21.6590    4.3550   -8.5000 C   0  0  0  0  0
  -22.2380    5.5040   -8.9150 C   0  0  0  0  0
  -21.6440    6.6220   -8.4900 F   0  0  0  0  0
  -24.4430   15.4620  -14.5030 H   0  0  0  0  0
  -23.7750   16.3650  -13.1000 H   0  0  0  0  0
  -25.1390   17.8810  -14.4100 H   0  0  0  0  0
  -26.5080   16.7180  -14.4200 H   0  0  0  0  0
  -27.9580   18.8410  -12.1630 H   0  0  0  0  0
  -27.2850   19.0920  -13.8100 H   0  0  0  0  0
  -28.1500   17.5680  -13.4150 H   0  0  0  0  0
  -26.5830   17.4030  -10.5370 H   0  0  0  0  0
  -27.5420   16.3800  -11.6610 H   0  0  0  0  0
  -25.9450   14.9580  -10.5450 H   0  0  0  0  0
  -24.5940   16.0820  -10.9170 H   0  0  0  0  0
  -26.2760   14.6090  -13.0140 H   0  0  0  0  0
  -23.9710   13.4260  -13.3930 H   0  0  0  0  0
  -23.5670   13.9860  -11.7350 H   0  0  0  0  0
  -22.9120   11.7900  -12.7560 H   0  0  0  0  0
  -28.3830   10.9410   -9.2220 H   0  0  0  0  0
  -27.7120    9.4230   -9.9090 H   0  0  0  0  0
  -26.8610   10.2520   -8.5610 H   0  0  0  0  0
  -25.6030    8.6990  -10.0270 H   0  0  0  0  0
  -20.4280    7.9060  -12.5920 H   0  0  0  0  0
  -24.9080    6.9060   -9.8260 H   0  0  0  0  0
  -24.8170    4.2560  -10.7060 H   0  0  0  0  0
  -23.7670    2.1390   -9.9420 H   0  0  0  0  0
  -20.7760    4.3870   -7.8780 H   0  0  0  0  0
  1  7  1  0  0  0
  1 31  1  0  0  0
  1 32  1  0  0  0
  2  1  1  0  0  0
  2  3  1  0  0  0
  2 33  1  0  0  0
  2 34  1  0  0  0
  3  5  1  0  0  0
  4  3  1  0  0  0
  4 35  1  0  0  0
  4 36  1  0  0  0
  4 37  1  0  0  0
  5  6  1  0  0  0
  5 38  1  0  0  0
  5 39  1  0  0  0
  6 40  1  0  0  0
  6 41  1  0  0  0
  7  8  1  0  0  0
  7  6  1  0  0  0
  7 42  1  0  0  0
  8  9  1  0  0  0
  8 43  1  0  0  0
  8 44  1  0  0  0
  9 10  1  0  0  0
 10 12  2  0  0  0
 11 17  2  0  0  0
 11 10  1  0  0  0
 11 45  1  0  0  0
 12 15  1  0  0  0
 12 13  1  0  0  0
 13 14  1  0  0  0
 14 46  1  0  0  0
 14 47  1  0  0  0
 14 48  1  0  0  0
 15 49  1  0  0  0
 16 21  1  0  0  0
 16 15  2  0  0  0
 17 16  1  0  0  0
 18 19  2  0  0  0
 18 17  1  0  0  0
 19 20  1  0  0  0
 19 50  1  0  0  0
 20 21  2  0  0  0
 21 22  1  0  0  0
 22 23  1  0  0  0
 22 51  1  0  0  0
 23 29  1  0  0  0
 24 23  2  0  0  0
 24 25  1  0  0  0
 24 52  1  0  0  0
 25 26  2  0  0  0
 25 53  1  0  0  0
 26 28  1  0  0  0
 26 27  1  0  0  0
 28 54  1  0  0  0
 29 28  2  0  0  0
 29 30  1  0  0  0
M  END
$$$$
