LQQ
                    3D
 Structure written by MMmdl.
 63 67  0  0  1  0            999 V2000
   32.4090   28.5440   60.1410 O   0  0  0  0  0  0
   33.0080   27.5190   59.9010 C   0  0  0  0  0  0
   34.3120   27.5070   59.1620 C   0  0  0  0  0  0
   32.4150   26.2120   60.3390 C   0  0  0  0  0  0
   32.6480   25.6900   61.6150 C   0  0  0  0  0  0
   33.4290   26.4260   62.6690 C   0  0  0  0  0  0
   31.9290   24.4600   62.0050 C   0  0  0  0  0  0
   32.1990   23.7830   63.2720 C   0  0  0  0  0  0
   31.5880   22.6260   63.5420 N   0  0  0  0  0  0
   30.8720   21.9680   62.6070 C   0  0  0  0  0  0
   30.7030   22.5010   61.3540 N   0  0  0  0  0  0
   31.2660   23.6800   60.9670 C   0  0  0  0  0  0
   31.0700   24.2300   59.7410 N   0  0  0  0  0  0
   30.2950   23.4750   58.7390 C   0  0  0  0  0  0
   29.2130   24.2680   58.0150 C   0  0  0  0  0  0
   29.2870   23.8720   56.5360 C   0  0  0  0  0  0
   30.5060   22.9550   56.3320 C   0  0  0  0  0  0
   31.2520   22.9450   57.6650 C   0  0  0  0  0  0
   31.6630   25.4930   59.4060 C   0  0  0  0  0  0
   31.5220   26.0010   58.2620 O   0  0  0  0  0  0
   30.3500   20.7760   63.0170 N   0  0  0  0  0  0
   29.6660   19.8610   62.2880 C   0  0  0  0  0  0
   29.5140   18.6170   62.8010 N   0  0  0  0  0  0
   28.8440   17.6710   62.1330 C   0  0  0  0  0  0
   28.2800   17.9460   60.8870 C   0  0  0  0  0  0
   28.4240   19.2200   60.3470 C   0  0  0  0  0  0
   29.1170   20.1840   61.0520 C   0  0  0  0  0  0
   27.5710   16.9530   60.1740 N   0  0  0  0  0  0
   28.4660   15.8000   59.9060 C   0  0  0  0  0  0
   27.7120   14.6830   59.1890 C   0  0  0  0  0  0
   27.0440   15.1960   58.0030 N   0  3  0  0  0  0
   26.3410   16.4760   58.0250 C   0  0  0  0  0  0
   26.9860   17.5260   58.9330 C   0  0  0  0  0  0
   34.6670   26.4707   59.0616 H   0  0  0  0  0  0
   35.0547   28.0967   59.7193 H   0  0  0  0  0  0
   34.1712   27.9448   58.1628 H   0  0  0  0  0  0
   33.4767   25.8158   63.5830 H   0  0  0  0  0  0
   32.9331   27.3822   62.8920 H   0  0  0  0  0  0
   34.4483   26.6182   62.3028 H   0  0  0  0  0  0
   32.8870   24.2150   63.9840 H   0  0  0  0  0  0
   29.8007   22.7009   59.3443 H   0  0  0  0  0  0
   28.2291   24.0162   58.4376 H   0  0  0  0  0  0
   29.4013   25.3445   58.1406 H   0  0  0  0  0  0
   28.3671   23.3397   56.2525 H   0  0  0  0  0  0
   29.3921   24.7766   55.9190 H   0  0  0  0  0  0
   30.1640   21.9455   56.0601 H   0  0  0  0  0  0
   31.1371   23.3578   55.5261 H   0  0  0  0  0  0
   32.1388   23.5936   57.6118 H   0  0  0  0  0  0
   31.5614   21.9213   57.9224 H   0  0  0  0  0  0
   30.4642   20.4564   64.0633 H   0  0  0  0  0  0
   28.7390   16.6860   62.5620 H   0  0  0  0  0  0
   27.9970   19.4530   59.3830 H   0  0  0  0  0  0
   29.2310   21.1790   60.6470 H   0  0  0  0  0  0
   29.3038   16.1258   59.2719 H   0  0  0  0  0  0
   28.8564   15.4099   60.8575 H   0  0  0  0  0  0
   28.4204   13.8974   58.8874 H   0  0  0  0  0  0
   26.9577   14.2562   59.8664 H   0  0  0  0  0  0
   27.7790   15.3240   57.1947 H   0  0  0  0  0  0
   26.3151   16.8976   57.0093 H   0  0  0  0  0  0
   25.3128   16.3235   58.3851 H   0  0  0  0  0  0
   26.2078   18.2569   59.1980 H   0  0  0  0  0  0
   27.7754   18.0254   58.3521 H   0  0  0  0  0  0
   26.2675   14.4855   57.6833 H   0  0  0  0  0  0
  1  2  2  0  0  0
  2  3  1  0  0  0
  2  4  1  0  0  0
  3 34  1  0  0  0
  3 35  1  0  0  0
  3 36  1  0  0  0
  4  5  2  0  0  0
  4 19  1  0  0  0
  5  6  1  0  0  0
  5  7  1  0  0  0
  6 37  1  0  0  0
  6 38  1  0  0  0
  6 39  1  0  0  0
  7  8  1  0  0  0
  7 12  2  0  0  0
  8  9  2  0  0  0
  8 40  1  0  0  0
  9 10  1  0  0  0
 10 11  2  0  0  0
 10 21  1  0  0  0
 11 12  1  0  0  0
 12 13  1  0  0  0
 13 14  1  0  0  0
 13 19  1  0  0  0
 14 15  1  0  0  0
 14 18  1  0  0  0
 14 41  1  0  0  0
 15 16  1  0  0  0
 15 42  1  0  0  0
 15 43  1  0  0  0
 16 17  1  0  0  0
 16 44  1  0  0  0
 16 45  1  0  0  0
 17 18  1  0  0  0
 17 46  1  0  0  0
 17 47  1  0  0  0
 18 48  1  0  0  0
 18 49  1  0  0  0
 19 20  2  0  0  0
 21 22  1  0  0  0
 21 50  1  0  0  0
 22 23  2  0  0  0
 22 27  1  0  0  0
 23 24  1  0  0  0
 24 25  2  0  0  0
 24 51  1  0  0  0
 25 26  1  0  0  0
 25 28  1  0  0  0
 26 27  2  0  0  0
 26 52  1  0  0  0
 27 53  1  0  0  0
 28 29  1  0  0  0
 28 33  1  0  0  0
 29 30  1  0  0  0
 29 54  1  0  0  0
 29 55  1  0  0  0
 30 31  1  0  0  0
 30 56  1  0  0  0
 30 57  1  0  0  0
 31 32  1  0  0  0
 31 58  1  0  0  0
 31 63  1  0  0  0
 32 33  1  0  0  0
 32 59  1  0  0  0
 32 60  1  0  0  0
 33 61  1  0  0  0
 33 62  1  0  0  0
M  CHG  1  31   1
M  END
> <s_m_source_file>
/Users/choderaj/github/choderalab/mcce-charges/mcce-charges.jchodera/epik_inhibitors/output/Palbociclib/Palbociclib-input.mol2

> <i_m_source_file_index>
1

> <r_lp_tautomer_probability>
0.999940280531876

> <r_epik_Ionization_Penalty>
  0.1984

> <r_epik_Ionization_Penalty_Charging>
  0.0243

> <r_epik_Ionization_Penalty_Neutral>
  0.1740

> <r_epik_State_Penalty>
  0.2563

> <i_epik_Tot_Q>
1

> <s_epik_Chemistry_Notes>
This compound has an imine and may undergo hydrolysis.

$$$$
LQQ
                    3D
 Structure written by MMmdl.
 64 68  0  0  1  0            999 V2000
   32.4090   28.5440   60.1410 O   0  0  0  0  0  0
   33.0080   27.5190   59.9010 C   0  0  0  0  0  0
   34.3120   27.5070   59.1620 C   0  0  0  0  0  0
   32.4150   26.2120   60.3390 C   0  0  0  0  0  0
   32.6480   25.6900   61.6150 C   0  0  0  0  0  0
   33.4290   26.4260   62.6690 C   0  0  0  0  0  0
   31.9290   24.4600   62.0050 C   0  0  0  0  0  0
   32.1990   23.7830   63.2720 C   0  0  0  0  0  0
   31.5880   22.6260   63.5420 N   0  0  0  0  0  0
   30.8720   21.9680   62.6070 C   0  0  0  0  0  0
   30.7030   22.5010   61.3540 N   0  0  0  0  0  0
   31.2660   23.6800   60.9670 C   0  0  0  0  0  0
   31.0700   24.2300   59.7410 N   0  0  0  0  0  0
   30.2950   23.4750   58.7390 C   0  0  0  0  0  0
   29.2130   24.2680   58.0150 C   0  0  0  0  0  0
   29.2870   23.8720   56.5360 C   0  0  0  0  0  0
   30.5060   22.9550   56.3320 C   0  0  0  0  0  0
   31.2520   22.9450   57.6650 C   0  0  0  0  0  0
   31.6630   25.4930   59.4060 C   0  0  0  0  0  0
   31.5220   26.0010   58.2620 O   0  0  0  0  0  0
   30.3500   20.7760   63.0170 N   0  0  0  0  0  0
   29.6660   19.8610   62.2880 C   0  0  0  0  0  0
   29.5140   18.6170   62.8010 N   0  3  0  0  0  0
   28.8440   17.6710   62.1330 C   0  0  0  0  0  0
   28.2800   17.9460   60.8870 C   0  0  0  0  0  0
   28.4240   19.2200   60.3470 C   0  0  0  0  0  0
   29.1170   20.1840   61.0520 C   0  0  0  0  0  0
   27.5710   16.9530   60.1740 N   0  0  0  0  0  0
   28.4660   15.8000   59.9060 C   0  0  0  0  0  0
   27.7120   14.6830   59.1890 C   0  0  0  0  0  0
   27.0440   15.1960   58.0030 N   0  3  0  0  0  0
   26.3410   16.4760   58.0250 C   0  0  0  0  0  0
   26.9860   17.5260   58.9330 C   0  0  0  0  0  0
   34.6670   26.4707   59.0616 H   0  0  0  0  0  0
   35.0547   28.0967   59.7193 H   0  0  0  0  0  0
   34.1712   27.9448   58.1628 H   0  0  0  0  0  0
   33.4767   25.8158   63.5830 H   0  0  0  0  0  0
   32.9331   27.3822   62.8920 H   0  0  0  0  0  0
   34.4483   26.6182   62.3028 H   0  0  0  0  0  0
   32.8870   24.2150   63.9840 H   0  0  0  0  0  0
   29.8007   22.7009   59.3443 H   0  0  0  0  0  0
   28.2291   24.0162   58.4376 H   0  0  0  0  0  0
   29.4013   25.3445   58.1406 H   0  0  0  0  0  0
   28.3671   23.3397   56.2525 H   0  0  0  0  0  0
   29.3921   24.7766   55.9190 H   0  0  0  0  0  0
   30.1640   21.9455   56.0601 H   0  0  0  0  0  0
   31.1371   23.3578   55.5261 H   0  0  0  0  0  0
   32.1388   23.5936   57.6118 H   0  0  0  0  0  0
   31.5614   21.9213   57.9224 H   0  0  0  0  0  0
   30.4642   20.4564   64.0633 H   0  0  0  0  0  0
   28.7390   16.6860   62.5620 H   0  0  0  0  0  0
   27.9970   19.4530   59.3830 H   0  0  0  0  0  0
   29.2310   21.1790   60.6470 H   0  0  0  0  0  0
   29.3038   16.1258   59.2719 H   0  0  0  0  0  0
   28.8564   15.4099   60.8575 H   0  0  0  0  0  0
   28.4204   13.8974   58.8874 H   0  0  0  0  0  0
   26.9577   14.2562   59.8664 H   0  0  0  0  0  0
   27.7790   15.3240   57.1947 H   0  0  0  0  0  0
   26.3151   16.8976   57.0093 H   0  0  0  0  0  0
   25.3128   16.3235   58.3851 H   0  0  0  0  0  0
   26.2078   18.2569   59.1980 H   0  0  0  0  0  0
   27.7754   18.0254   58.3521 H   0  0  0  0  0  0
   26.2675   14.4855   57.6833 H   0  0  0  0  0  0
   29.9449   18.3704   63.7826 H   0  0  0  0  0  0
  1  2  2  0  0  0
  2  3  1  0  0  0
  2  4  1  0  0  0
  3 34  1  0  0  0
  3 35  1  0  0  0
  3 36  1  0  0  0
  4  5  2  0  0  0
  4 19  1  0  0  0
  5  6  1  0  0  0
  5  7  1  0  0  0
  6 37  1  0  0  0
  6 38  1  0  0  0
  6 39  1  0  0  0
  7  8  1  0  0  0
  7 12  2  0  0  0
  8  9  2  0  0  0
  8 40  1  0  0  0
  9 10  1  0  0  0
 10 11  2  0  0  0
 10 21  1  0  0  0
 11 12  1  0  0  0
 12 13  1  0  0  0
 13 14  1  0  0  0
 13 19  1  0  0  0
 14 15  1  0  0  0
 14 18  1  0  0  0
 14 41  1  0  0  0
 15 16  1  0  0  0
 15 42  1  0  0  0
 15 43  1  0  0  0
 16 17  1  0  0  0
 16 44  1  0  0  0
 16 45  1  0  0  0
 17 18  1  0  0  0
 17 46  1  0  0  0
 17 47  1  0  0  0
 18 48  1  0  0  0
 18 49  1  0  0  0
 19 20  2  0  0  0
 21 22  1  0  0  0
 21 50  1  0  0  0
 22 23  2  0  0  0
 22 27  1  0  0  0
 23 24  1  0  0  0
 23 64  1  0  0  0
 24 25  2  0  0  0
 24 51  1  0  0  0
 25 26  1  0  0  0
 25 28  1  0  0  0
 26 27  2  0  0  0
 26 52  1  0  0  0
 27 53  1  0  0  0
 28 29  1  0  0  0
 28 33  1  0  0  0
 29 30  1  0  0  0
 29 54  1  0  0  0
 29 55  1  0  0  0
 30 31  1  0  0  0
 30 56  1  0  0  0
 30 57  1  0  0  0
 31 32  1  0  0  0
 31 58  1  0  0  0
 31 63  1  0  0  0
 32 33  1  0  0  0
 32 59  1  0  0  0
 32 60  1  0  0  0
 33 61  1  0  0  0
 33 62  1  0  0  0
M  CHG  2  23   1  31   1
M  END
> <s_m_source_file>
/Users/choderaj/github/choderalab/mcce-charges/mcce-charges.jchodera/epik_inhibitors/output/Palbociclib/Palbociclib-input.mol2

> <i_m_source_file_index>
1

> <r_lp_tautomer_probability>
0.999943852345196

> <r_epik_Ionization_Penalty>
  0.9091

> <r_epik_Ionization_Penalty_Charging>
  0.9091

> <r_epik_Ionization_Penalty_Neutral>
  0.0000

> <r_epik_State_Penalty>
  0.7639

> <i_epik_Tot_Q>
2

> <s_epik_Chemistry_Notes>
This compound has an imine and may undergo hydrolysis.

$$$$
LQQ
                    3D
 Structure written by MMmdl.
 63 67  0  0  1  0            999 V2000
   32.4090   28.5440   60.1410 O   0  0  0  0  0  0
   33.0080   27.5190   59.9010 C   0  0  0  0  0  0
   34.3120   27.5070   59.1620 C   0  0  0  0  0  0
   32.4150   26.2120   60.3390 C   0  0  0  0  0  0
   32.6480   25.6900   61.6150 C   0  0  0  0  0  0
   33.4290   26.4260   62.6690 C   0  0  0  0  0  0
   31.9290   24.4600   62.0050 C   0  0  0  0  0  0
   32.1990   23.7830   63.2720 C   0  0  0  0  0  0
   31.5880   22.6260   63.5420 N   0  0  0  0  0  0
   30.8720   21.9680   62.6070 C   0  0  0  0  0  0
   30.7030   22.5010   61.3540 N   0  0  0  0  0  0
   31.2660   23.6800   60.9670 C   0  0  0  0  0  0
   31.0700   24.2300   59.7410 N   0  0  0  0  0  0
   30.2950   23.4750   58.7390 C   0  0  0  0  0  0
   29.2130   24.2680   58.0150 C   0  0  0  0  0  0
   29.2870   23.8720   56.5360 C   0  0  0  0  0  0
   30.5060   22.9550   56.3320 C   0  0  0  0  0  0
   31.2520   22.9450   57.6650 C   0  0  0  0  0  0
   31.6630   25.4930   59.4060 C   0  0  0  0  0  0
   31.5220   26.0010   58.2620 O   0  0  0  0  0  0
   30.3500   20.7760   63.0170 N   0  0  0  0  0  0
   29.6660   19.8610   62.2880 C   0  0  0  0  0  0
   29.5140   18.6170   62.8010 N   0  3  0  0  0  0
   28.8440   17.6710   62.1330 C   0  0  0  0  0  0
   28.2800   17.9460   60.8870 C   0  0  0  0  0  0
   28.4240   19.2200   60.3470 C   0  0  0  0  0  0
   29.1170   20.1840   61.0520 C   0  0  0  0  0  0
   27.5710   16.9530   60.1740 N   0  0  0  0  0  0
   28.4660   15.8000   59.9060 C   0  0  0  0  0  0
   27.7120   14.6830   59.1890 C   0  0  0  0  0  0
   27.0440   15.1960   58.0030 N   0  0  0  0  0  0
   26.3410   16.4760   58.0250 C   0  0  0  0  0  0
   26.9860   17.5260   58.9330 C   0  0  0  0  0  0
   34.6670   26.4707   59.0616 H   0  0  0  0  0  0
   35.0547   28.0967   59.7193 H   0  0  0  0  0  0
   34.1712   27.9448   58.1628 H   0  0  0  0  0  0
   33.4767   25.8158   63.5830 H   0  0  0  0  0  0
   32.9331   27.3822   62.8920 H   0  0  0  0  0  0
   34.4483   26.6182   62.3028 H   0  0  0  0  0  0
   32.8870   24.2150   63.9840 H   0  0  0  0  0  0
   29.8007   22.7009   59.3443 H   0  0  0  0  0  0
   28.2291   24.0162   58.4376 H   0  0  0  0  0  0
   29.4013   25.3445   58.1406 H   0  0  0  0  0  0
   28.3671   23.3397   56.2525 H   0  0  0  0  0  0
   29.3921   24.7766   55.9190 H   0  0  0  0  0  0
   30.1640   21.9455   56.0601 H   0  0  0  0  0  0
   31.1371   23.3578   55.5261 H   0  0  0  0  0  0
   32.1388   23.5936   57.6118 H   0  0  0  0  0  0
   31.5614   21.9213   57.9224 H   0  0  0  0  0  0
   30.4642   20.4564   64.0633 H   0  0  0  0  0  0
   28.7390   16.6860   62.5620 H   0  0  0  0  0  0
   27.9970   19.4530   59.3830 H   0  0  0  0  0  0
   29.2310   21.1790   60.6470 H   0  0  0  0  0  0
   29.3038   16.1258   59.2719 H   0  0  0  0  0  0
   28.8564   15.4099   60.8575 H   0  0  0  0  0  0
   28.4204   13.8974   58.8874 H   0  0  0  0  0  0
   26.9577   14.2562   59.8664 H   0  0  0  0  0  0
   27.7790   15.3240   57.1947 H   0  0  0  0  0  0
   26.3151   16.8976   57.0093 H   0  0  0  0  0  0
   25.3128   16.3235   58.3851 H   0  0  0  0  0  0
   26.2078   18.2569   59.1980 H   0  0  0  0  0  0
   27.7754   18.0254   58.3521 H   0  0  0  0  0  0
   29.9449   18.3704   63.7826 H   0  0  0  0  0  0
  1  2  2  0  0  0
  2  3  1  0  0  0
  2  4  1  0  0  0
  3 34  1  0  0  0
  3 35  1  0  0  0
  3 36  1  0  0  0
  4  5  2  0  0  0
  4 19  1  0  0  0
  5  6  1  0  0  0
  5  7  1  0  0  0
  6 37  1  0  0  0
  6 38  1  0  0  0
  6 39  1  0  0  0
  7  8  1  0  0  0
  7 12  2  0  0  0
  8  9  2  0  0  0
  8 40  1  0  0  0
  9 10  1  0  0  0
 10 11  2  0  0  0
 10 21  1  0  0  0
 11 12  1  0  0  0
 12 13  1  0  0  0
 13 14  1  0  0  0
 13 19  1  0  0  0
 14 15  1  0  0  0
 14 18  1  0  0  0
 14 41  1  0  0  0
 15 16  1  0  0  0
 15 42  1  0  0  0
 15 43  1  0  0  0
 16 17  1  0  0  0
 16 44  1  0  0  0
 16 45  1  0  0  0
 17 18  1  0  0  0
 17 46  1  0  0  0
 17 47  1  0  0  0
 18 48  1  0  0  0
 18 49  1  0  0  0
 19 20  2  0  0  0
 21 22  1  0  0  0
 21 50  1  0  0  0
 22 23  2  0  0  0
 22 27  1  0  0  0
 23 24  1  0  0  0
 23 63  1  0  0  0
 24 25  2  0  0  0
 24 51  1  0  0  0
 25 26  1  0  0  0
 25 28  1  0  0  0
 26 27  2  0  0  0
 26 52  1  0  0  0
 27 53  1  0  0  0
 28 29  1  0  0  0
 28 33  1  0  0  0
 29 30  1  0  0  0
 29 54  1  0  0  0
 29 55  1  0  0  0
 30 31  1  0  0  0
 30 56  1  0  0  0
 30 57  1  0  0  0
 31 32  1  0  0  0
 31 58  1  0  0  0
 32 33  1  0  0  0
 32 59  1  0  0  0
 32 60  1  0  0  0
 33 61  1  0  0  0
 33 62  1  0  0  0
M  CHG  1  23   1
M  END
> <s_m_source_file>
/Users/choderaj/github/choderalab/mcce-charges/mcce-charges.jchodera/epik_inhibitors/output/Palbociclib/Palbociclib-input.mol2

> <i_m_source_file_index>
1

> <r_epik_Ionization_Penalty>
  1.2350

> <r_epik_Ionization_Penalty_Charging>
  0.1224

> <r_epik_Ionization_Penalty_Neutral>
  1.1126

> <r_epik_State_Penalty>
  1.6745

> <i_epik_Tot_Q>
1

> <s_epik_Chemistry_Notes>
This compound has an imine and may undergo hydrolysis.

$$$$
LQQ
                    3D
 Structure written by MMmdl.
 62 66  0  0  1  0            999 V2000
   32.4090   28.5440   60.1410 O   0  0  0  0  0  0
   33.0080   27.5190   59.9010 C   0  0  0  0  0  0
   34.3120   27.5070   59.1620 C   0  0  0  0  0  0
   32.4150   26.2120   60.3390 C   0  0  0  0  0  0
   32.6480   25.6900   61.6150 C   0  0  0  0  0  0
   33.4290   26.4260   62.6690 C   0  0  0  0  0  0
   31.9290   24.4600   62.0050 C   0  0  0  0  0  0
   32.1990   23.7830   63.2720 C   0  0  0  0  0  0
   31.5880   22.6260   63.5420 N   0  0  0  0  0  0
   30.8720   21.9680   62.6070 C   0  0  0  0  0  0
   30.7030   22.5010   61.3540 N   0  0  0  0  0  0
   31.2660   23.6800   60.9670 C   0  0  0  0  0  0
   31.0700   24.2300   59.7410 N   0  0  0  0  0  0
   30.2950   23.4750   58.7390 C   0  0  0  0  0  0
   29.2130   24.2680   58.0150 C   0  0  0  0  0  0
   29.2870   23.8720   56.5360 C   0  0  0  0  0  0
   30.5060   22.9550   56.3320 C   0  0  0  0  0  0
   31.2520   22.9450   57.6650 C   0  0  0  0  0  0
   31.6630   25.4930   59.4060 C   0  0  0  0  0  0
   31.5220   26.0010   58.2620 O   0  0  0  0  0  0
   30.3500   20.7760   63.0170 N   0  0  0  0  0  0
   29.6660   19.8610   62.2880 C   0  0  0  0  0  0
   29.5140   18.6170   62.8010 N   0  0  0  0  0  0
   28.8440   17.6710   62.1330 C   0  0  0  0  0  0
   28.2800   17.9460   60.8870 C   0  0  0  0  0  0
   28.4240   19.2200   60.3470 C   0  0  0  0  0  0
   29.1170   20.1840   61.0520 C   0  0  0  0  0  0
   27.5710   16.9530   60.1740 N   0  0  0  0  0  0
   28.4660   15.8000   59.9060 C   0  0  0  0  0  0
   27.7120   14.6830   59.1890 C   0  0  0  0  0  0
   27.0440   15.1960   58.0030 N   0  0  0  0  0  0
   26.3410   16.4760   58.0250 C   0  0  0  0  0  0
   26.9860   17.5260   58.9330 C   0  0  0  0  0  0
   34.6670   26.4707   59.0616 H   0  0  0  0  0  0
   35.0547   28.0967   59.7193 H   0  0  0  0  0  0
   34.1712   27.9448   58.1628 H   0  0  0  0  0  0
   33.4767   25.8158   63.5830 H   0  0  0  0  0  0
   32.9331   27.3822   62.8920 H   0  0  0  0  0  0
   34.4483   26.6182   62.3028 H   0  0  0  0  0  0
   32.8870   24.2150   63.9840 H   0  0  0  0  0  0
   29.8007   22.7009   59.3443 H   0  0  0  0  0  0
   28.2291   24.0162   58.4376 H   0  0  0  0  0  0
   29.4013   25.3445   58.1406 H   0  0  0  0  0  0
   28.3671   23.3397   56.2525 H   0  0  0  0  0  0
   29.3921   24.7766   55.9190 H   0  0  0  0  0  0
   30.1640   21.9455   56.0601 H   0  0  0  0  0  0
   31.1371   23.3578   55.5261 H   0  0  0  0  0  0
   32.1388   23.5936   57.6118 H   0  0  0  0  0  0
   31.5614   21.9213   57.9224 H   0  0  0  0  0  0
   30.4642   20.4564   64.0633 H   0  0  0  0  0  0
   28.7390   16.6860   62.5620 H   0  0  0  0  0  0
   27.9970   19.4530   59.3830 H   0  0  0  0  0  0
   29.2310   21.1790   60.6470 H   0  0  0  0  0  0
   29.3038   16.1258   59.2719 H   0  0  0  0  0  0
   28.8564   15.4099   60.8575 H   0  0  0  0  0  0
   28.4204   13.8974   58.8874 H   0  0  0  0  0  0
   26.9577   14.2562   59.8664 H   0  0  0  0  0  0
   27.7790   15.3240   57.1947 H   0  0  0  0  0  0
   26.3151   16.8976   57.0093 H   0  0  0  0  0  0
   25.3128   16.3235   58.3851 H   0  0  0  0  0  0
   26.2078   18.2569   59.1980 H   0  0  0  0  0  0
   27.7754   18.0254   58.3521 H   0  0  0  0  0  0
  1  2  2  0  0  0
  2  3  1  0  0  0
  2  4  1  0  0  0
  3 34  1  0  0  0
  3 35  1  0  0  0
  3 36  1  0  0  0
  4  5  2  0  0  0
  4 19  1  0  0  0
  5  6  1  0  0  0
  5  7  1  0  0  0
  6 37  1  0  0  0
  6 38  1  0  0  0
  6 39  1  0  0  0
  7  8  1  0  0  0
  7 12  2  0  0  0
  8  9  2  0  0  0
  8 40  1  0  0  0
  9 10  1  0  0  0
 10 11  2  0  0  0
 10 21  1  0  0  0
 11 12  1  0  0  0
 12 13  1  0  0  0
 13 14  1  0  0  0
 13 19  1  0  0  0
 14 15  1  0  0  0
 14 18  1  0  0  0
 14 41  1  0  0  0
 15 16  1  0  0  0
 15 42  1  0  0  0
 15 43  1  0  0  0
 16 17  1  0  0  0
 16 44  1  0  0  0
 16 45  1  0  0  0
 17 18  1  0  0  0
 17 46  1  0  0  0
 17 47  1  0  0  0
 18 48  1  0  0  0
 18 49  1  0  0  0
 19 20  2  0  0  0
 21 22  1  0  0  0
 21 50  1  0  0  0
 22 23  2  0  0  0
 22 27  1  0  0  0
 23 24  1  0  0  0
 24 25  2  0  0  0
 24 51  1  0  0  0
 25 26  1  0  0  0
 25 28  1  0  0  0
 26 27  2  0  0  0
 26 52  1  0  0  0
 27 53  1  0  0  0
 28 29  1  0  0  0
 28 33  1  0  0  0
 29 30  1  0  0  0
 29 54  1  0  0  0
 29 55  1  0  0  0
 30 31  1  0  0  0
 30 56  1  0  0  0
 30 57  1  0  0  0
 31 32  1  0  0  0
 31 58  1  0  0  0
 32 33  1  0  0  0
 32 59  1  0  0  0
 32 60  1  0  0  0
 33 61  1  0  0  0
 33 62  1  0  0  0
M  END
> <s_m_source_file>
/Users/choderaj/github/choderalab/mcce-charges/mcce-charges.jchodera/epik_inhibitors/output/Palbociclib/Palbociclib-input.mol2

> <i_m_source_file_index>
1

> <r_lp_tautomer_probability>
0.999940280531876

> <r_epik_Ionization_Penalty>
  2.8985

> <r_epik_Ionization_Penalty_Charging>
  0.0000

> <r_epik_Ionization_Penalty_Neutral>
  2.8985

> <r_epik_State_Penalty>
  2.4336

> <i_epik_Tot_Q>
0

> <s_epik_Chemistry_Notes>
This compound has an imine and may undergo hydrolysis.

$$$$
