ZD6
                    3D
 Structure written by MMmdl.
 55 58  0  0  1  0            999 V2000
  -24.6920   15.9600  -13.5540 C   0  0  0  0  0  0
  -25.6660   17.1090  -13.8300 C   0  0  0  0  0  0
  -26.2060   17.7350  -12.5960 N   0  3  1  0  0  0
  -27.4810   18.3480  -13.0230 C   0  0  0  0  0  0
  -26.5500   16.8150  -11.4660 C   0  0  0  0  0  0
  -25.5480   15.6720  -11.2810 C   0  0  0  0  0  0
  -25.3120   14.9490  -12.6080 C   0  0  2  0  0  0
  -24.3880   13.7520  -12.4290 C   0  0  0  0  0  0
  -25.2470   12.7670  -11.8870 O   0  0  0  0  0  0
  -24.7220   11.5280  -11.6550 C   0  0  0  0  0  0
  -23.5000   11.1130  -12.1550 C   0  0  0  0  0  0
  -25.4840   10.6690  -10.8840 C   0  0  0  0  0  0
  -26.6940   11.1710  -10.4290 O   0  0  0  0  0  0
  -27.4580   10.4010   -9.4730 C   0  0  0  0  0  0
  -25.0120    9.3770  -10.6250 C   0  0  0  0  0  0
  -23.7800    8.9600  -11.1360 C   0  0  0  0  0  0
  -23.0230    9.8400  -11.8940 C   0  0  0  0  0  0
  -21.8330    9.4340  -12.4010 N   0  0  0  0  0  0
  -21.3730    8.2090  -12.1660 C   0  0  0  0  0  0
  -22.0550    7.3510  -11.4160 N   0  0  0  0  0  0
  -23.2520    7.6690  -10.8930 C   0  0  0  0  0  0
  -23.9680    6.7080  -10.1040 N   0  0  0  0  0  0
  -23.3730    5.4880   -9.7110 C   0  0  0  0  0  0
  -23.9320    4.2780  -10.0880 C   0  0  0  0  0  0
  -23.3430    3.0920   -9.6630 C   0  0  0  0  0  0
  -22.1950    3.1520   -8.8700 C   0  0  0  0  0  0
  -21.2330    1.6390   -8.2120 Br  0  0  0  0  0  0
  -21.6590    4.3550   -8.5000 C   0  0  0  0  0  0
  -22.2380    5.5040   -8.9150 C   0  0  0  0  0  0
  -21.6440    6.6220   -8.4900 F   0  0  0  0  0  0
  -23.7761   16.3701  -13.1034 H   0  0  0  0  0  0
  -24.4436   15.4674  -14.5057 H   0  0  0  0  0  0
  -25.1521   17.8960  -14.4015 H   0  0  0  0  0  0
  -26.5213   16.7332  -14.4108 H   0  0  0  0  0  0
  -27.2938   19.0399  -13.8574 H   0  0  0  0  0  0
  -27.9225   18.9005  -12.1805 H   0  0  0  0  0  0
  -28.1757   17.5599  -13.3490 H   0  0  0  0  0  0
  -26.5771   17.3841  -10.5251 H   0  0  0  0  0  0
  -27.5356   16.3620  -11.6490 H   0  0  0  0  0  0
  -24.5917   16.0777  -10.9194 H   0  0  0  0  0  0
  -25.9425   14.9537  -10.5472 H   0  0  0  0  0  0
  -26.2581   14.5606  -13.0131 H   0  0  0  0  0  0
  -23.9723   13.4606  -13.4048 H   0  0  0  0  0  0
  -23.5681   14.0205  -11.7466 H   0  0  0  0  0  0
  -22.9120   11.7900  -12.7560 H   0  0  0  0  0  0
  -28.3825   10.9416   -9.2219 H   0  0  0  0  0  0
  -26.8610   10.2523   -8.5611 H   0  0  0  0  0  0
  -27.7117    9.4233   -9.9087 H   0  0  0  0  0  0
  -25.6030    8.6990  -10.0270 H   0  0  0  0  0  0
  -20.4280    7.9060  -12.5920 H   0  0  0  0  0  0
  -25.0026    6.9137   -9.7922 H   0  0  0  0  0  0
  -24.8170    4.2560  -10.7060 H   0  0  0  0  0  0
  -23.7670    2.1390   -9.9420 H   0  0  0  0  0  0
  -20.7760    4.3870   -7.8780 H   0  0  0  0  0  0
  -25.4262   18.4093  -12.2122 H   0  0  0  0  0  0
  1  7  1  0  0  0
  1 31  1  0  0  0
  1 32  1  0  0  0
  1  2  1  0  0  0
  2  3  1  0  0  0
  2 33  1  0  0  0
  2 34  1  0  0  0
  3  5  1  0  0  0
  3  4  1  0  0  0
  3 55  1  0  0  0
  4 35  1  0  0  0
  4 36  1  0  0  0
  4 37  1  0  0  0
  5  6  1  0  0  0
  5 38  1  0  0  0
  5 39  1  0  0  0
  6 40  1  0  0  0
  6 41  1  0  0  0
  6  7  1  0  0  0
  7  8  1  0  0  0
  7 42  1  0  0  0
  8  9  1  0  0  0
  8 43  1  0  0  0
  8 44  1  0  0  0
  9 10  1  0  0  0
 10 12  2  0  0  0
 10 11  1  0  0  0
 11 17  2  0  0  0
 11 45  1  0  0  0
 12 15  1  0  0  0
 12 13  1  0  0  0
 13 14  1  0  0  0
 14 46  1  0  0  0
 14 47  1  0  0  0
 14 48  1  0  0  0
 15 49  1  0  0  0
 15 16  2  0  0  0
 16 21  1  0  0  0
 16 17  1  0  0  0
 17 18  1  0  0  0
 18 19  2  0  0  0
 19 20  1  0  0  0
 19 50  1  0  0  0
 20 21  2  0  0  0
 21 22  1  0  0  0
 22 23  1  0  0  0
 22 51  1  0  0  0
 23 29  2  0  0  0
 23 24  1  0  0  0
 24 25  2  0  0  0
 24 52  1  0  0  0
 25 26  1  0  0  0
 25 53  1  0  0  0
 26 28  2  0  0  0
 26 27  1  0  0  0
 28 54  1  0  0  0
 28 29  1  0  0  0
 29 30  1  0  0  0
M  CHG  1   3   1
M  END
> <s_m_source_file>
C:\GitHub\mcce-charges\epik_inhibitors\output-new\Vandetanib\Vandetanib-input.mol2

> <i_m_source_file_index>
1

> <r_lp_tautomer_probability>
0.999978000241998

> <r_epik_Ionization_Penalty>
  0.0048

> <r_epik_Ionization_Penalty_Charging>
  0.0039

> <r_epik_Ionization_Penalty_Neutral>
  0.0009

> <r_epik_State_Penalty>
  0.0069

> <r_epik_Charging_Adjusted_Penalty>
0.0107452685210023

> <i_epik_Tot_Q>
1

> <i_epik_Tot_abs_Q>
1

$$$$
ZD6
                    3D
 Structure written by MMmdl.
 54 57  0  0  1  0            999 V2000
  -24.6920   15.9600  -13.5540 C   0  0  0  0  0  0
  -25.6660   17.1090  -13.8300 C   0  0  0  0  0  0
  -26.2060   17.7350  -12.5960 N   0  0  0  0  0  0
  -27.4810   18.3480  -13.0230 C   0  0  0  0  0  0
  -26.5500   16.8150  -11.4660 C   0  0  0  0  0  0
  -25.5480   15.6720  -11.2810 C   0  0  0  0  0  0
  -25.3120   14.9490  -12.6080 C   0  0  0  0  0  0
  -24.3880   13.7520  -12.4290 C   0  0  0  0  0  0
  -25.2470   12.7670  -11.8870 O   0  0  0  0  0  0
  -24.7220   11.5280  -11.6550 C   0  0  0  0  0  0
  -23.5000   11.1130  -12.1550 C   0  0  0  0  0  0
  -25.4840   10.6690  -10.8840 C   0  0  0  0  0  0
  -26.6940   11.1710  -10.4290 O   0  0  0  0  0  0
  -27.4580   10.4010   -9.4730 C   0  0  0  0  0  0
  -25.0120    9.3770  -10.6250 C   0  0  0  0  0  0
  -23.7800    8.9600  -11.1360 C   0  0  0  0  0  0
  -23.0230    9.8400  -11.8940 C   0  0  0  0  0  0
  -21.8330    9.4340  -12.4010 N   0  0  0  0  0  0
  -21.3730    8.2090  -12.1660 C   0  0  0  0  0  0
  -22.0550    7.3510  -11.4160 N   0  0  0  0  0  0
  -23.2520    7.6690  -10.8930 C   0  0  0  0  0  0
  -23.9680    6.7080  -10.1040 N   0  0  0  0  0  0
  -23.3730    5.4880   -9.7110 C   0  0  0  0  0  0
  -23.9320    4.2780  -10.0880 C   0  0  0  0  0  0
  -23.3430    3.0920   -9.6630 C   0  0  0  0  0  0
  -22.1950    3.1520   -8.8700 C   0  0  0  0  0  0
  -21.2330    1.6390   -8.2120 Br  0  0  0  0  0  0
  -21.6590    4.3550   -8.5000 C   0  0  0  0  0  0
  -22.2380    5.5040   -8.9150 C   0  0  0  0  0  0
  -21.6440    6.6220   -8.4900 F   0  0  0  0  0  0
  -23.7761   16.3701  -13.1034 H   0  0  0  0  0  0
  -24.4436   15.4674  -14.5057 H   0  0  0  0  0  0
  -25.1521   17.8960  -14.4015 H   0  0  0  0  0  0
  -26.5213   16.7332  -14.4108 H   0  0  0  0  0  0
  -27.2938   19.0399  -13.8574 H   0  0  0  0  0  0
  -27.9225   18.9005  -12.1805 H   0  0  0  0  0  0
  -28.1757   17.5599  -13.3490 H   0  0  0  0  0  0
  -26.5771   17.3841  -10.5251 H   0  0  0  0  0  0
  -27.5356   16.3620  -11.6490 H   0  0  0  0  0  0
  -24.5917   16.0777  -10.9194 H   0  0  0  0  0  0
  -25.9425   14.9537  -10.5472 H   0  0  0  0  0  0
  -26.2581   14.5606  -13.0131 H   0  0  0  0  0  0
  -23.9723   13.4606  -13.4048 H   0  0  0  0  0  0
  -23.5681   14.0205  -11.7466 H   0  0  0  0  0  0
  -22.9120   11.7900  -12.7560 H   0  0  0  0  0  0
  -28.3825   10.9416   -9.2219 H   0  0  0  0  0  0
  -26.8610   10.2523   -8.5611 H   0  0  0  0  0  0
  -27.7117    9.4233   -9.9087 H   0  0  0  0  0  0
  -25.6030    8.6990  -10.0270 H   0  0  0  0  0  0
  -20.4280    7.9060  -12.5920 H   0  0  0  0  0  0
  -25.0026    6.9137   -9.7922 H   0  0  0  0  0  0
  -24.8170    4.2560  -10.7060 H   0  0  0  0  0  0
  -23.7670    2.1390   -9.9420 H   0  0  0  0  0  0
  -20.7760    4.3870   -7.8780 H   0  0  0  0  0  0
  1  7  1  0  0  0
  1 31  1  0  0  0
  1 32  1  0  0  0
  1  2  1  0  0  0
  2  3  1  0  0  0
  2 33  1  0  0  0
  2 34  1  0  0  0
  3  5  1  0  0  0
  3  4  1  0  0  0
  4 35  1  0  0  0
  4 36  1  0  0  0
  4 37  1  0  0  0
  5  6  1  0  0  0
  5 38  1  0  0  0
  5 39  1  0  0  0
  6 40  1  0  0  0
  6 41  1  0  0  0
  6  7  1  0  0  0
  7  8  1  0  0  0
  7 42  1  0  0  0
  8  9  1  0  0  0
  8 43  1  0  0  0
  8 44  1  0  0  0
  9 10  1  0  0  0
 10 12  2  0  0  0
 10 11  1  0  0  0
 11 17  2  0  0  0
 11 45  1  0  0  0
 12 15  1  0  0  0
 12 13  1  0  0  0
 13 14  1  0  0  0
 14 46  1  0  0  0
 14 47  1  0  0  0
 14 48  1  0  0  0
 15 49  1  0  0  0
 15 16  2  0  0  0
 16 21  1  0  0  0
 16 17  1  0  0  0
 17 18  1  0  0  0
 18 19  2  0  0  0
 19 20  1  0  0  0
 19 50  1  0  0  0
 20 21  2  0  0  0
 21 22  1  0  0  0
 22 23  1  0  0  0
 22 51  1  0  0  0
 23 29  2  0  0  0
 23 24  1  0  0  0
 24 25  2  0  0  0
 24 52  1  0  0  0
 25 26  1  0  0  0
 25 53  1  0  0  0
 26 28  2  0  0  0
 26 27  1  0  0  0
 28 54  1  0  0  0
 28 29  1  0  0  0
 29 30  1  0  0  0
M  END
> <s_m_source_file>
C:\GitHub\mcce-charges\epik_inhibitors\output-new\Vandetanib\Vandetanib-input.mol2

> <i_m_source_file_index>
1

> <r_lp_tautomer_probability>
0.999978000241998

> <r_epik_Ionization_Penalty>
  2.9840

> <r_epik_Ionization_Penalty_Charging>
  0.0000

> <r_epik_Ionization_Penalty_Neutral>
  2.9840

> <r_epik_State_Penalty>
  2.9068

> <r_epik_Charging_Adjusted_Penalty>
2.90677729424901

> <i_epik_Tot_Q>
0

> <i_epik_Tot_abs_Q>
0

$$$$
ZD6
                    3D
 Structure written by MMmdl.
 56 59  0  0  1  0            999 V2000
  -24.6920   15.9600  -13.5540 C   0  0  0  0  0  0
  -25.6660   17.1090  -13.8300 C   0  0  0  0  0  0
  -26.2060   17.7350  -12.5960 N   0  3  1  0  0  0
  -27.4810   18.3480  -13.0230 C   0  0  0  0  0  0
  -26.5500   16.8150  -11.4660 C   0  0  0  0  0  0
  -25.5480   15.6720  -11.2810 C   0  0  0  0  0  0
  -25.3120   14.9490  -12.6080 C   0  0  2  0  0  0
  -24.3880   13.7520  -12.4290 C   0  0  0  0  0  0
  -25.2470   12.7670  -11.8870 O   0  0  0  0  0  0
  -24.7220   11.5280  -11.6550 C   0  0  0  0  0  0
  -23.5000   11.1130  -12.1550 C   0  0  0  0  0  0
  -25.4840   10.6690  -10.8840 C   0  0  0  0  0  0
  -26.6940   11.1710  -10.4290 O   0  0  0  0  0  0
  -27.4580   10.4010   -9.4730 C   0  0  0  0  0  0
  -25.0120    9.3770  -10.6250 C   0  0  0  0  0  0
  -23.7800    8.9600  -11.1360 C   0  0  0  0  0  0
  -23.0230    9.8400  -11.8940 C   0  0  0  0  0  0
  -21.8330    9.4340  -12.4010 N   0  0  0  0  0  0
  -21.3730    8.2090  -12.1660 C   0  0  0  0  0  0
  -22.0550    7.3510  -11.4160 N   0  0  0  0  0  0
  -23.2520    7.6690  -10.8930 C   0  0  0  0  0  0
  -23.9680    6.7080  -10.1040 N   0  3  0  0  0  0
  -23.3730    5.4880   -9.7110 C   0  0  0  0  0  0
  -23.9320    4.2780  -10.0880 C   0  0  0  0  0  0
  -23.3430    3.0920   -9.6630 C   0  0  0  0  0  0
  -22.1950    3.1520   -8.8700 C   0  0  0  0  0  0
  -21.2330    1.6390   -8.2120 Br  0  0  0  0  0  0
  -21.6590    4.3550   -8.5000 C   0  0  0  0  0  0
  -22.2380    5.5040   -8.9150 C   0  0  0  0  0  0
  -21.6440    6.6220   -8.4900 F   0  0  0  0  0  0
  -23.7761   16.3701  -13.1034 H   0  0  0  0  0  0
  -24.4436   15.4674  -14.5057 H   0  0  0  0  0  0
  -25.1521   17.8960  -14.4015 H   0  0  0  0  0  0
  -26.5213   16.7332  -14.4108 H   0  0  0  0  0  0
  -27.2938   19.0399  -13.8574 H   0  0  0  0  0  0
  -27.9225   18.9005  -12.1805 H   0  0  0  0  0  0
  -28.1757   17.5599  -13.3490 H   0  0  0  0  0  0
  -26.5771   17.3841  -10.5251 H   0  0  0  0  0  0
  -27.5356   16.3620  -11.6490 H   0  0  0  0  0  0
  -24.5917   16.0777  -10.9194 H   0  0  0  0  0  0
  -25.9425   14.9537  -10.5472 H   0  0  0  0  0  0
  -26.2581   14.5606  -13.0131 H   0  0  0  0  0  0
  -23.9723   13.4606  -13.4048 H   0  0  0  0  0  0
  -23.5681   14.0205  -11.7466 H   0  0  0  0  0  0
  -22.9120   11.7900  -12.7560 H   0  0  0  0  0  0
  -28.3825   10.9416   -9.2219 H   0  0  0  0  0  0
  -26.8610   10.2523   -8.5611 H   0  0  0  0  0  0
  -27.7117    9.4233   -9.9087 H   0  0  0  0  0  0
  -25.6030    8.6990  -10.0270 H   0  0  0  0  0  0
  -20.4280    7.9060  -12.5920 H   0  0  0  0  0  0
  -24.8170    4.2560  -10.7060 H   0  0  0  0  0  0
  -23.7670    2.1390   -9.9420 H   0  0  0  0  0  0
  -20.7760    4.3870   -7.8780 H   0  0  0  0  0  0
  -25.4262   18.4093  -12.2122 H   0  0  0  0  0  0
  -21.2339   10.1215  -13.0161 H   0  0  0  0  0  0
  -25.0026    6.9137   -9.7922 H   0  0  0  0  0  0
  1  7  1  0  0  0
  1 31  1  0  0  0
  1 32  1  0  0  0
  1  2  1  0  0  0
  2  3  1  0  0  0
  2 33  1  0  0  0
  2 34  1  0  0  0
  3  5  1  0  0  0
  3  4  1  0  0  0
  3 54  1  0  0  0
  4 35  1  0  0  0
  4 36  1  0  0  0
  4 37  1  0  0  0
  5  6  1  0  0  0
  5 38  1  0  0  0
  5 39  1  0  0  0
  6 40  1  0  0  0
  6 41  1  0  0  0
  6  7  1  0  0  0
  7  8  1  0  0  0
  7 42  1  0  0  0
  8  9  1  0  0  0
  8 43  1  0  0  0
  8 44  1  0  0  0
  9 10  1  0  0  0
 10 12  2  0  0  0
 10 11  1  0  0  0
 11 17  2  0  0  0
 11 45  1  0  0  0
 12 15  1  0  0  0
 12 13  1  0  0  0
 13 14  1  0  0  0
 14 46  1  0  0  0
 14 47  1  0  0  0
 14 48  1  0  0  0
 15 49  1  0  0  0
 15 16  2  0  0  0
 16 21  1  0  0  0
 16 17  1  0  0  0
 17 18  1  0  0  0
 18 19  1  0  0  0
 18 55  1  0  0  0
 19 20  2  0  0  0
 19 50  1  0  0  0
 20 21  1  0  0  0
 21 22  2  0  0  0
 22 23  1  0  0  0
 22 56  1  0  0  0
 23 29  2  0  0  0
 23 24  1  0  0  0
 24 25  2  0  0  0
 24 51  1  0  0  0
 25 26  1  0  0  0
 25 52  1  0  0  0
 26 28  2  0  0  0
 26 27  1  0  0  0
 28 53  1  0  0  0
 28 29  1  0  0  0
 29 30  1  0  0  0
M  CHG  2   3   1  22   1
M  END
> <s_m_source_file>
C:\GitHub\mcce-charges\epik_inhibitors\output-new\Vandetanib\Vandetanib-input.mol2

> <i_m_source_file_index>
1

> <r_epik_Ionization_Penalty>
  0.0389

> <r_epik_Ionization_Penalty_Charging>
  0.0040

> <r_epik_Ionization_Penalty_Neutral>
  0.0349

> <r_epik_State_Penalty>
  3.4591

> <r_epik_Charging_Adjusted_Penalty>
3.46310354997484

> <i_epik_Tot_Q>
2

> <i_epik_Tot_abs_Q>
2

> <s_epik_Chemistry_Notes>
This compound has an imine and may undergo hydrolysis.

$$$$
ZD6
                    3D
 Structure written by MMmdl.
 56 59  0  0  1  0            999 V2000
  -24.6920   15.9600  -13.5540 C   0  0  0  0  0  0
  -25.6660   17.1090  -13.8300 C   0  0  0  0  0  0
  -26.2060   17.7350  -12.5960 N   0  3  1  0  0  0
  -27.4810   18.3480  -13.0230 C   0  0  0  0  0  0
  -26.5500   16.8150  -11.4660 C   0  0  0  0  0  0
  -25.5480   15.6720  -11.2810 C   0  0  0  0  0  0
  -25.3120   14.9490  -12.6080 C   0  0  2  0  0  0
  -24.3880   13.7520  -12.4290 C   0  0  0  0  0  0
  -25.2470   12.7670  -11.8870 O   0  0  0  0  0  0
  -24.7220   11.5280  -11.6550 C   0  0  0  0  0  0
  -23.5000   11.1130  -12.1550 C   0  0  0  0  0  0
  -25.4840   10.6690  -10.8840 C   0  0  0  0  0  0
  -26.6940   11.1710  -10.4290 O   0  0  0  0  0  0
  -27.4580   10.4010   -9.4730 C   0  0  0  0  0  0
  -25.0120    9.3770  -10.6250 C   0  0  0  0  0  0
  -23.7800    8.9600  -11.1360 C   0  0  0  0  0  0
  -23.0230    9.8400  -11.8940 C   0  0  0  0  0  0
  -21.8330    9.4340  -12.4010 N   0  3  0  0  0  0
  -21.3730    8.2090  -12.1660 C   0  0  0  0  0  0
  -22.0550    7.3510  -11.4160 N   0  0  0  0  0  0
  -23.2520    7.6690  -10.8930 C   0  0  0  0  0  0
  -23.9680    6.7080  -10.1040 N   0  0  0  0  0  0
  -23.3730    5.4880   -9.7110 C   0  0  0  0  0  0
  -23.9320    4.2780  -10.0880 C   0  0  0  0  0  0
  -23.3430    3.0920   -9.6630 C   0  0  0  0  0  0
  -22.1950    3.1520   -8.8700 C   0  0  0  0  0  0
  -21.2330    1.6390   -8.2120 Br  0  0  0  0  0  0
  -21.6590    4.3550   -8.5000 C   0  0  0  0  0  0
  -22.2380    5.5040   -8.9150 C   0  0  0  0  0  0
  -21.6440    6.6220   -8.4900 F   0  0  0  0  0  0
  -23.7761   16.3701  -13.1034 H   0  0  0  0  0  0
  -24.4436   15.4674  -14.5057 H   0  0  0  0  0  0
  -25.1521   17.8960  -14.4015 H   0  0  0  0  0  0
  -26.5213   16.7332  -14.4108 H   0  0  0  0  0  0
  -27.2938   19.0399  -13.8574 H   0  0  0  0  0  0
  -27.9225   18.9005  -12.1805 H   0  0  0  0  0  0
  -28.1757   17.5599  -13.3490 H   0  0  0  0  0  0
  -26.5771   17.3841  -10.5251 H   0  0  0  0  0  0
  -27.5356   16.3620  -11.6490 H   0  0  0  0  0  0
  -24.5917   16.0777  -10.9194 H   0  0  0  0  0  0
  -25.9425   14.9537  -10.5472 H   0  0  0  0  0  0
  -26.2581   14.5606  -13.0131 H   0  0  0  0  0  0
  -23.9723   13.4606  -13.4048 H   0  0  0  0  0  0
  -23.5681   14.0205  -11.7466 H   0  0  0  0  0  0
  -22.9120   11.7900  -12.7560 H   0  0  0  0  0  0
  -28.3825   10.9416   -9.2219 H   0  0  0  0  0  0
  -26.8610   10.2523   -8.5611 H   0  0  0  0  0  0
  -27.7117    9.4233   -9.9087 H   0  0  0  0  0  0
  -25.6030    8.6990  -10.0270 H   0  0  0  0  0  0
  -20.4280    7.9060  -12.5920 H   0  0  0  0  0  0
  -25.0026    6.9137   -9.7922 H   0  0  0  0  0  0
  -24.8170    4.2560  -10.7060 H   0  0  0  0  0  0
  -23.7670    2.1390   -9.9420 H   0  0  0  0  0  0
  -20.7760    4.3870   -7.8780 H   0  0  0  0  0  0
  -25.4262   18.4093  -12.2122 H   0  0  0  0  0  0
  -21.2339   10.1215  -13.0161 H   0  0  0  0  0  0
  1  7  1  0  0  0
  1 31  1  0  0  0
  1 32  1  0  0  0
  1  2  1  0  0  0
  2  3  1  0  0  0
  2 33  1  0  0  0
  2 34  1  0  0  0
  3  5  1  0  0  0
  3  4  1  0  0  0
  3 55  1  0  0  0
  4 35  1  0  0  0
  4 36  1  0  0  0
  4 37  1  0  0  0
  5  6  1  0  0  0
  5 38  1  0  0  0
  5 39  1  0  0  0
  6 40  1  0  0  0
  6 41  1  0  0  0
  6  7  1  0  0  0
  7  8  1  0  0  0
  7 42  1  0  0  0
  8  9  1  0  0  0
  8 43  1  0  0  0
  8 44  1  0  0  0
  9 10  1  0  0  0
 10 12  2  0  0  0
 10 11  1  0  0  0
 11 17  2  0  0  0
 11 45  1  0  0  0
 12 15  1  0  0  0
 12 13  1  0  0  0
 13 14  1  0  0  0
 14 46  1  0  0  0
 14 47  1  0  0  0
 14 48  1  0  0  0
 15 49  1  0  0  0
 15 16  2  0  0  0
 16 21  1  0  0  0
 16 17  1  0  0  0
 17 18  1  0  0  0
 18 19  2  0  0  0
 18 56  1  0  0  0
 19 20  1  0  0  0
 19 50  1  0  0  0
 20 21  2  0  0  0
 21 22  1  0  0  0
 22 23  1  0  0  0
 22 51  1  0  0  0
 23 29  2  0  0  0
 23 24  1  0  0  0
 24 25  2  0  0  0
 24 52  1  0  0  0
 25 26  1  0  0  0
 25 53  1  0  0  0
 26 28  2  0  0  0
 26 27  1  0  0  0
 28 54  1  0  0  0
 28 29  1  0  0  0
 29 30  1  0  0  0
M  CHG  2   3   1  18   1
M  END
> <s_m_source_file>
C:\GitHub\mcce-charges\epik_inhibitors\output-new\Vandetanib\Vandetanib-input.mol2

> <i_m_source_file_index>
1

> <r_epik_Ionization_Penalty>
  4.0680

> <r_epik_Ionization_Penalty_Charging>
  4.0678

> <r_epik_Ionization_Penalty_Neutral>
  0.0002

> <r_epik_State_Penalty>
  4.0403

> <r_epik_Charging_Adjusted_Penalty>
8.10811540505779

> <i_epik_Tot_Q>
2

> <i_epik_Tot_abs_Q>
2

$$$$
ZD6
                    3D
 Structure written by MMmdl.
 56 59  0  0  1  0            999 V2000
  -24.6920   15.9600  -13.5540 C   0  0  0  0  0  0
  -25.6660   17.1090  -13.8300 C   0  0  0  0  0  0
  -26.2060   17.7350  -12.5960 N   0  3  1  0  0  0
  -27.4810   18.3480  -13.0230 C   0  0  0  0  0  0
  -26.5500   16.8150  -11.4660 C   0  0  0  0  0  0
  -25.5480   15.6720  -11.2810 C   0  0  0  0  0  0
  -25.3120   14.9490  -12.6080 C   0  0  2  0  0  0
  -24.3880   13.7520  -12.4290 C   0  0  0  0  0  0
  -25.2470   12.7670  -11.8870 O   0  0  0  0  0  0
  -24.7220   11.5280  -11.6550 C   0  0  0  0  0  0
  -23.5000   11.1130  -12.1550 C   0  0  0  0  0  0
  -25.4840   10.6690  -10.8840 C   0  0  0  0  0  0
  -26.6940   11.1710  -10.4290 O   0  0  0  0  0  0
  -27.4580   10.4010   -9.4730 C   0  0  0  0  0  0
  -25.0120    9.3770  -10.6250 C   0  0  0  0  0  0
  -23.7800    8.9600  -11.1360 C   0  0  0  0  0  0
  -23.0230    9.8400  -11.8940 C   0  0  0  0  0  0
  -21.8330    9.4340  -12.4010 N   0  0  0  0  0  0
  -21.3730    8.2090  -12.1660 C   0  0  0  0  0  0
  -22.0550    7.3510  -11.4160 N   0  3  0  0  0  0
  -23.2520    7.6690  -10.8930 C   0  0  0  0  0  0
  -23.9680    6.7080  -10.1040 N   0  0  0  0  0  0
  -23.3730    5.4880   -9.7110 C   0  0  0  0  0  0
  -23.9320    4.2780  -10.0880 C   0  0  0  0  0  0
  -23.3430    3.0920   -9.6630 C   0  0  0  0  0  0
  -22.1950    3.1520   -8.8700 C   0  0  0  0  0  0
  -21.2330    1.6390   -8.2120 Br  0  0  0  0  0  0
  -21.6590    4.3550   -8.5000 C   0  0  0  0  0  0
  -22.2380    5.5040   -8.9150 C   0  0  0  0  0  0
  -21.6440    6.6220   -8.4900 F   0  0  0  0  0  0
  -23.7761   16.3701  -13.1034 H   0  0  0  0  0  0
  -24.4436   15.4674  -14.5057 H   0  0  0  0  0  0
  -25.1521   17.8960  -14.4015 H   0  0  0  0  0  0
  -26.5213   16.7332  -14.4108 H   0  0  0  0  0  0
  -27.2938   19.0399  -13.8574 H   0  0  0  0  0  0
  -27.9225   18.9005  -12.1805 H   0  0  0  0  0  0
  -28.1757   17.5599  -13.3490 H   0  0  0  0  0  0
  -26.5771   17.3841  -10.5251 H   0  0  0  0  0  0
  -27.5356   16.3620  -11.6490 H   0  0  0  0  0  0
  -24.5917   16.0777  -10.9194 H   0  0  0  0  0  0
  -25.9425   14.9537  -10.5472 H   0  0  0  0  0  0
  -26.2581   14.5606  -13.0131 H   0  0  0  0  0  0
  -23.9723   13.4606  -13.4048 H   0  0  0  0  0  0
  -23.5681   14.0205  -11.7466 H   0  0  0  0  0  0
  -22.9120   11.7900  -12.7560 H   0  0  0  0  0  0
  -28.3825   10.9416   -9.2219 H   0  0  0  0  0  0
  -26.8610   10.2523   -8.5611 H   0  0  0  0  0  0
  -27.7117    9.4233   -9.9087 H   0  0  0  0  0  0
  -25.6030    8.6990  -10.0270 H   0  0  0  0  0  0
  -20.4280    7.9060  -12.5920 H   0  0  0  0  0  0
  -25.0026    6.9137   -9.7922 H   0  0  0  0  0  0
  -24.8170    4.2560  -10.7060 H   0  0  0  0  0  0
  -23.7670    2.1390   -9.9420 H   0  0  0  0  0  0
  -20.7760    4.3870   -7.8780 H   0  0  0  0  0  0
  -25.4262   18.4093  -12.2122 H   0  0  0  0  0  0
  -21.6426    6.3524  -11.2095 H   0  0  0  0  0  0
  1  7  1  0  0  0
  1 31  1  0  0  0
  1 32  1  0  0  0
  1  2  1  0  0  0
  2  3  1  0  0  0
  2 33  1  0  0  0
  2 34  1  0  0  0
  3  5  1  0  0  0
  3  4  1  0  0  0
  3 55  1  0  0  0
  4 35  1  0  0  0
  4 36  1  0  0  0
  4 37  1  0  0  0
  5  6  1  0  0  0
  5 38  1  0  0  0
  5 39  1  0  0  0
  6 40  1  0  0  0
  6 41  1  0  0  0
  6  7  1  0  0  0
  7  8  1  0  0  0
  7 42  1  0  0  0
  8  9  1  0  0  0
  8 43  1  0  0  0
  8 44  1  0  0  0
  9 10  1  0  0  0
 10 12  2  0  0  0
 10 11  1  0  0  0
 11 17  2  0  0  0
 11 45  1  0  0  0
 12 15  1  0  0  0
 12 13  1  0  0  0
 13 14  1  0  0  0
 14 46  1  0  0  0
 14 47  1  0  0  0
 14 48  1  0  0  0
 15 49  1  0  0  0
 15 16  2  0  0  0
 16 21  1  0  0  0
 16 17  1  0  0  0
 17 18  1  0  0  0
 18 19  2  0  0  0
 19 20  1  0  0  0
 19 50  1  0  0  0
 20 21  2  0  0  0
 20 56  1  0  0  0
 21 22  1  0  0  0
 22 23  1  0  0  0
 22 51  1  0  0  0
 23 29  2  0  0  0
 23 24  1  0  0  0
 24 25  2  0  0  0
 24 52  1  0  0  0
 25 26  1  0  0  0
 25 53  1  0  0  0
 26 28  2  0  0  0
 26 27  1  0  0  0
 28 54  1  0  0  0
 28 29  1  0  0  0
 29 30  1  0  0  0
M  CHG  2   3   1  20   1
M  END
> <s_m_source_file>
C:\GitHub\mcce-charges\epik_inhibitors\output-new\Vandetanib\Vandetanib-input.mol2

> <i_m_source_file_index>
1

> <r_epik_Ionization_Penalty>
  4.6796

> <r_epik_Ionization_Penalty_Charging>
  4.5660

> <r_epik_Ionization_Penalty_Neutral>
  0.1136

> <r_epik_State_Penalty>
  5.4666

> <r_epik_Charging_Adjusted_Penalty>
10.0326146724877

> <i_epik_Tot_Q>
2

> <i_epik_Tot_abs_Q>
2

$$$$
