KIM
                    3D
 Structure written by MMmdl.
 56 59  0  0  1  0            999 V2000
    6.0200   41.7280    5.0700 N   0  0  0  0  0  0
    7.1920   40.7770    6.9400 N   0  0  0  0  0  0
    7.0160   42.6060    4.5910 C   0  0  0  0  0  0
    6.0660   40.9220    6.2230 C   0  0  0  0  0  0
    4.9090   39.5540    7.5850 C   0  0  0  0  0  0
    6.0050   39.3540    8.3730 C   0  0  0  0  0  0
    7.1710   39.9990    8.0230 C   0  0  0  0  0  0
    8.5420   38.8350    9.7940 C   0  0  0  0  0  0
    8.9390   36.8970   11.7100 C   0  0  0  0  0  0
    9.1260   34.8060   13.2690 C   0  0  0  0  0  0
    9.1680   39.2020   10.9720 C   0  0  0  0  0  0
    6.6560   43.9040    0.7890 C   0  0  0  0  0  0
    8.9050   44.3410    3.5490 C   0  0  0  0  0  0
   10.9060   44.3900    2.5140 C   0  0  0  0  0  0
    9.6190   44.7170    6.8690 C   0  0  0  0  0  0
   10.1100   44.2850    5.6000 O   0  0  0  0  0  0
    9.0280   43.8810    4.8390 C   0  0  0  0  0  0
    8.0900   43.0150    5.3570 C   0  0  0  0  0  0
    4.9060   40.3280    6.5070 N   0  3  0  0  0  0
    8.3270   39.8160    8.8150 N   0  0  0  0  0  0
    9.4720   40.6740    8.5500 C   0  0  0  0  0  0
    8.1300   37.5310    9.5890 C   0  0  0  0  0  0
    8.3160   36.5390   10.5290 C   0  0  0  0  0  0
    9.3180   36.2230   12.9050 C   0  0  0  0  0  0
    9.9200   37.0510   13.7630 N   0  0  0  0  0  0
    9.9280   38.2370   13.1340 N   0  0  0  0  0  0
    9.3490   38.2030   11.8960 C   0  0  0  0  0  0
    6.8950   43.0730    3.2980 C   0  0  0  0  0  0
    7.8370   43.9360    2.7820 C   0  0  0  0  0  0
    7.7710   44.4330    1.4910 O   0  0  0  0  0  0
    9.8580   45.2110    3.0320 O   0  0  0  0  0  0
    5.0736   41.6176    4.5204 H   0  0  0  0  0  0
    3.9910   39.0530    7.8540 H   0  0  0  0  0  0
    5.9600   38.7130    9.2410 H   0  0  0  0  0  0
    8.6172   34.2819   12.4466 H   0  0  0  0  0  0
    8.5129   34.7413   14.1800 H   0  0  0  0  0  0
   10.1048   34.3385   13.4518 H   0  0  0  0  0  0
    9.4950   40.2150   11.1540 H   0  0  0  0  0  0
    6.6339   44.3184   -0.2297 H   0  0  0  0  0  0
    5.7290   44.1753    1.3154 H   0  0  0  0  0  0
    6.7413   42.8085    0.7375 H   0  0  0  0  0  0
   11.6949   45.0276    2.0884 H   0  0  0  0  0  0
   10.5030   43.7325    1.7297 H   0  0  0  0  0  0
   11.3271   43.7778    3.3251 H   0  0  0  0  0  0
   10.4614   45.0446    7.4959 H   0  0  0  0  0  0
    9.0966   43.8844    7.3628 H   0  0  0  0  0  0
    8.9207   45.5548    6.7261 H   0  0  0  0  0  0
    8.1950   42.6530    6.3690 H   0  0  0  0  0  0
    9.2089   41.4070    7.7731 H   0  0  0  0  0  0
   10.3174   40.0609    8.2045 H   0  0  0  0  0  0
    9.7552   41.2027    9.4721 H   0  0  0  0  0  0
    7.6440   37.2800    8.6580 H   0  0  0  0  0  0
    7.9890   35.5250   10.3500 H   0  0  0  0  0  0
   10.3739   39.1158   13.6228 H   0  0  0  0  0  0
    6.0600   42.7610    2.6890 H   0  0  0  0  0  0
    4.0299   40.4962    5.8635 H   0  0  0  0  0  0
  1  3  1  0  0  0
  1  4  1  0  0  0
  1 32  1  0  0  0
  2  4  2  0  0  0
  2  7  1  0  0  0
  3 18  2  0  0  0
  3 28  1  0  0  0
  4 19  1  0  0  0
  5  6  1  0  0  0
  5 19  2  0  0  0
  5 33  1  0  0  0
  6  7  2  0  0  0
  6 34  1  0  0  0
  7 20  1  0  0  0
  8 11  1  0  0  0
  8 20  1  0  0  0
  8 22  2  0  0  0
  9 23  2  0  0  0
  9 24  1  0  0  0
  9 27  1  0  0  0
 10 24  1  0  0  0
 10 35  1  0  0  0
 10 36  1  0  0  0
 10 37  1  0  0  0
 11 27  2  0  0  0
 11 38  1  0  0  0
 12 30  1  0  0  0
 12 39  1  0  0  0
 12 40  1  0  0  0
 12 41  1  0  0  0
 13 17  2  0  0  0
 13 29  1  0  0  0
 13 31  1  0  0  0
 14 31  1  0  0  0
 14 42  1  0  0  0
 14 43  1  0  0  0
 14 44  1  0  0  0
 15 16  1  0  0  0
 15 45  1  0  0  0
 15 46  1  0  0  0
 15 47  1  0  0  0
 16 17  1  0  0  0
 17 18  1  0  0  0
 18 48  1  0  0  0
 19 56  1  0  0  0
 20 21  1  0  0  0
 21 49  1  0  0  0
 21 50  1  0  0  0
 21 51  1  0  0  0
 22 23  1  0  0  0
 22 52  1  0  0  0
 23 53  1  0  0  0
 24 25  2  0  0  0
 25 26  1  0  0  0
 26 27  1  0  0  0
 26 54  1  0  0  0
 28 29  2  0  0  0
 28 55  1  0  0  0
 29 30  1  0  0  0
M  CHG  1  19   1
M  END
> <s_m_source_file>
C:\GitHub\mcce-charges\epik_inhibitors\output-new\Pazopanib\Pazopanib-input.mol2

> <i_m_source_file_index>
1

> <r_lp_tautomer_probability>
0.499941720819023

> <r_epik_Ionization_Penalty>
  3.0192

> <r_epik_Ionization_Penalty_Charging>
  3.0191

> <r_epik_Ionization_Penalty_Neutral>
  0.0001

> <r_epik_State_Penalty>
  0.2501

> <r_epik_Charging_Adjusted_Penalty>
3.2691449511631

> <i_epik_Tot_Q>
1

> <i_epik_Tot_abs_Q>
1

$$$$
KIM
                    3D
 Structure written by MMmdl.
 55 58  0  0  1  0            999 V2000
    6.0200   41.7280    5.0700 N   0  0  0  0  0  0
    7.1920   40.7770    6.9400 N   0  0  0  0  0  0
    7.0160   42.6060    4.5910 C   0  0  0  0  0  0
    6.0660   40.9220    6.2230 C   0  0  0  0  0  0
    4.9090   39.5540    7.5850 C   0  0  0  0  0  0
    6.0050   39.3540    8.3730 C   0  0  0  0  0  0
    7.1710   39.9990    8.0230 C   0  0  0  0  0  0
    8.5420   38.8350    9.7940 C   0  0  0  0  0  0
    8.9390   36.8970   11.7100 C   0  0  0  0  0  0
    9.1260   34.8060   13.2690 C   0  0  0  0  0  0
    9.1680   39.2020   10.9720 C   0  0  0  0  0  0
    6.6560   43.9040    0.7890 C   0  0  0  0  0  0
    8.9050   44.3410    3.5490 C   0  0  0  0  0  0
   10.9060   44.3900    2.5140 C   0  0  0  0  0  0
    9.6190   44.7170    6.8690 C   0  0  0  0  0  0
   10.1100   44.2850    5.6000 O   0  0  0  0  0  0
    9.0280   43.8810    4.8390 C   0  0  0  0  0  0
    8.0900   43.0150    5.3570 C   0  0  0  0  0  0
    4.9060   40.3280    6.5070 N   0  0  0  0  0  0
    8.3270   39.8160    8.8150 N   0  0  0  0  0  0
    9.4720   40.6740    8.5500 C   0  0  0  0  0  0
    8.1300   37.5310    9.5890 C   0  0  0  0  0  0
    8.3160   36.5390   10.5290 C   0  0  0  0  0  0
    9.3180   36.2230   12.9050 C   0  0  0  0  0  0
    9.9200   37.0510   13.7630 N   0  0  0  0  0  0
    9.9280   38.2370   13.1340 N   0  0  0  0  0  0
    9.3490   38.2030   11.8960 C   0  0  0  0  0  0
    6.8950   43.0730    3.2980 C   0  0  0  0  0  0
    7.8370   43.9360    2.7820 C   0  0  0  0  0  0
    7.7710   44.4330    1.4910 O   0  0  0  0  0  0
    9.8580   45.2110    3.0320 O   0  0  0  0  0  0
    5.0736   41.6176    4.5204 H   0  0  0  0  0  0
    3.9910   39.0530    7.8540 H   0  0  0  0  0  0
    5.9600   38.7130    9.2410 H   0  0  0  0  0  0
    8.6172   34.2819   12.4466 H   0  0  0  0  0  0
    8.5129   34.7413   14.1800 H   0  0  0  0  0  0
   10.1048   34.3385   13.4518 H   0  0  0  0  0  0
    9.4950   40.2150   11.1540 H   0  0  0  0  0  0
    6.6339   44.3184   -0.2297 H   0  0  0  0  0  0
    5.7290   44.1753    1.3154 H   0  0  0  0  0  0
    6.7413   42.8085    0.7375 H   0  0  0  0  0  0
   11.6949   45.0276    2.0884 H   0  0  0  0  0  0
   10.5030   43.7325    1.7297 H   0  0  0  0  0  0
   11.3271   43.7778    3.3251 H   0  0  0  0  0  0
   10.4614   45.0446    7.4959 H   0  0  0  0  0  0
    9.0966   43.8844    7.3628 H   0  0  0  0  0  0
    8.9207   45.5548    6.7261 H   0  0  0  0  0  0
    8.1950   42.6530    6.3690 H   0  0  0  0  0  0
    9.2089   41.4070    7.7731 H   0  0  0  0  0  0
   10.3174   40.0609    8.2045 H   0  0  0  0  0  0
    9.7552   41.2027    9.4721 H   0  0  0  0  0  0
    7.6440   37.2800    8.6580 H   0  0  0  0  0  0
    7.9890   35.5250   10.3500 H   0  0  0  0  0  0
   10.3739   39.1158   13.6228 H   0  0  0  0  0  0
    6.0600   42.7610    2.6890 H   0  0  0  0  0  0
  1  3  1  0  0  0
  1  4  1  0  0  0
  1 32  1  0  0  0
  2  4  2  0  0  0
  2  7  1  0  0  0
  3 18  2  0  0  0
  3 28  1  0  0  0
  4 19  1  0  0  0
  5  6  1  0  0  0
  5 19  2  0  0  0
  5 33  1  0  0  0
  6  7  2  0  0  0
  6 34  1  0  0  0
  7 20  1  0  0  0
  8 11  1  0  0  0
  8 20  1  0  0  0
  8 22  2  0  0  0
  9 23  2  0  0  0
  9 24  1  0  0  0
  9 27  1  0  0  0
 10 24  1  0  0  0
 10 35  1  0  0  0
 10 36  1  0  0  0
 10 37  1  0  0  0
 11 27  2  0  0  0
 11 38  1  0  0  0
 12 30  1  0  0  0
 12 39  1  0  0  0
 12 40  1  0  0  0
 12 41  1  0  0  0
 13 17  2  0  0  0
 13 29  1  0  0  0
 13 31  1  0  0  0
 14 31  1  0  0  0
 14 42  1  0  0  0
 14 43  1  0  0  0
 14 44  1  0  0  0
 15 16  1  0  0  0
 15 45  1  0  0  0
 15 46  1  0  0  0
 15 47  1  0  0  0
 16 17  1  0  0  0
 17 18  1  0  0  0
 18 48  1  0  0  0
 20 21  1  0  0  0
 21 49  1  0  0  0
 21 50  1  0  0  0
 21 51  1  0  0  0
 22 23  1  0  0  0
 22 52  1  0  0  0
 23 53  1  0  0  0
 24 25  2  0  0  0
 25 26  1  0  0  0
 26 27  1  0  0  0
 26 54  1  0  0  0
 28 29  2  0  0  0
 28 55  1  0  0  0
 29 30  1  0  0  0
M  END
> <s_m_source_file>
C:\GitHub\mcce-charges\epik_inhibitors\output-new\Pazopanib\Pazopanib-input.mol2

> <i_m_source_file_index>
1

> <r_lp_tautomer_probability>
0.980391134921865

> <r_epik_Ionization_Penalty>
  0.0170

> <r_epik_Ionization_Penalty_Charging>
  0.0000

> <r_epik_Ionization_Penalty_Neutral>
  0.0170

> <r_epik_State_Penalty>
  0.6361

> <r_epik_Charging_Adjusted_Penalty>
0.636144896321799

> <i_epik_Tot_Q>
0

> <i_epik_Tot_abs_Q>
0

$$$$
KIM
                    3D
 Structure written by MMmdl.
 55 58  0  0  1  0            999 V2000
    6.0200   41.7280    5.0700 N   0  0  0  0  0  0
    7.1920   40.7770    6.9400 N   0  0  0  0  0  0
    7.0160   42.6060    4.5910 C   0  0  0  0  0  0
    6.0660   40.9220    6.2230 C   0  0  0  0  0  0
    4.9090   39.5540    7.5850 C   0  0  0  0  0  0
    6.0050   39.3540    8.3730 C   0  0  0  0  0  0
    7.1710   39.9990    8.0230 C   0  0  0  0  0  0
    8.5420   38.8350    9.7940 C   0  0  0  0  0  0
    8.9390   36.8970   11.7100 C   0  0  0  0  0  0
    9.1260   34.8060   13.2690 C   0  0  0  0  0  0
    9.1680   39.2020   10.9720 C   0  0  0  0  0  0
    6.6560   43.9040    0.7890 C   0  0  0  0  0  0
    8.9050   44.3410    3.5490 C   0  0  0  0  0  0
   10.9060   44.3900    2.5140 C   0  0  0  0  0  0
    9.6190   44.7170    6.8690 C   0  0  0  0  0  0
   10.1100   44.2850    5.6000 O   0  0  0  0  0  0
    9.0280   43.8810    4.8390 C   0  0  0  0  0  0
    8.0900   43.0150    5.3570 C   0  0  0  0  0  0
    4.9060   40.3280    6.5070 N   0  0  0  0  0  0
    8.3270   39.8160    8.8150 N   0  0  0  0  0  0
    9.4720   40.6740    8.5500 C   0  0  0  0  0  0
    8.1300   37.5310    9.5890 C   0  0  0  0  0  0
    8.3160   36.5390   10.5290 C   0  0  0  0  0  0
    9.3180   36.2230   12.9050 C   0  0  0  0  0  0
    9.9200   37.0510   13.7630 N   0  0  0  0  0  0
    9.9280   38.2370   13.1340 N   0  0  0  0  0  0
    9.3490   38.2030   11.8960 C   0  0  0  0  0  0
    6.8950   43.0730    3.2980 C   0  0  0  0  0  0
    7.8370   43.9360    2.7820 C   0  0  0  0  0  0
    7.7710   44.4330    1.4910 O   0  0  0  0  0  0
    9.8580   45.2110    3.0320 O   0  0  0  0  0  0
    5.0736   41.6176    4.5204 H   0  0  0  0  0  0
    3.9910   39.0530    7.8540 H   0  0  0  0  0  0
    5.9600   38.7130    9.2410 H   0  0  0  0  0  0
    8.6172   34.2819   12.4466 H   0  0  0  0  0  0
    8.5129   34.7413   14.1800 H   0  0  0  0  0  0
   10.1048   34.3385   13.4518 H   0  0  0  0  0  0
    9.4950   40.2150   11.1540 H   0  0  0  0  0  0
    6.6339   44.3184   -0.2297 H   0  0  0  0  0  0
    5.7290   44.1753    1.3154 H   0  0  0  0  0  0
    6.7413   42.8085    0.7375 H   0  0  0  0  0  0
   11.6949   45.0276    2.0884 H   0  0  0  0  0  0
   10.5030   43.7325    1.7297 H   0  0  0  0  0  0
   11.3271   43.7778    3.3251 H   0  0  0  0  0  0
   10.4614   45.0446    7.4959 H   0  0  0  0  0  0
    9.0966   43.8844    7.3628 H   0  0  0  0  0  0
    8.9207   45.5548    6.7261 H   0  0  0  0  0  0
    8.1950   42.6530    6.3690 H   0  0  0  0  0  0
    9.2089   41.4070    7.7731 H   0  0  0  0  0  0
   10.3174   40.0609    8.2045 H   0  0  0  0  0  0
    9.7552   41.2027    9.4721 H   0  0  0  0  0  0
    7.6440   37.2800    8.6580 H   0  0  0  0  0  0
    7.9890   35.5250   10.3500 H   0  0  0  0  0  0
    6.0600   42.7610    2.6890 H   0  0  0  0  0  0
   10.2726   36.6750   14.7347 H   0  0  0  0  0  0
  1  3  1  0  0  0
  1  4  1  0  0  0
  1 32  1  0  0  0
  2  4  2  0  0  0
  2  7  1  0  0  0
  3 18  2  0  0  0
  3 28  1  0  0  0
  4 19  1  0  0  0
  5  6  1  0  0  0
  5 19  2  0  0  0
  5 33  1  0  0  0
  6  7  2  0  0  0
  6 34  1  0  0  0
  7 20  1  0  0  0
  8 11  2  0  0  0
  8 20  1  0  0  0
  8 22  1  0  0  0
  9 23  1  0  0  0
  9 24  2  0  0  0
  9 27  1  0  0  0
 10 24  1  0  0  0
 10 35  1  0  0  0
 10 36  1  0  0  0
 10 37  1  0  0  0
 11 27  1  0  0  0
 11 38  1  0  0  0
 12 30  1  0  0  0
 12 39  1  0  0  0
 12 40  1  0  0  0
 12 41  1  0  0  0
 13 17  2  0  0  0
 13 29  1  0  0  0
 13 31  1  0  0  0
 14 31  1  0  0  0
 14 42  1  0  0  0
 14 43  1  0  0  0
 14 44  1  0  0  0
 15 16  1  0  0  0
 15 45  1  0  0  0
 15 46  1  0  0  0
 15 47  1  0  0  0
 16 17  1  0  0  0
 17 18  1  0  0  0
 18 48  1  0  0  0
 20 21  1  0  0  0
 21 49  1  0  0  0
 21 50  1  0  0  0
 21 51  1  0  0  0
 22 23  2  0  0  0
 22 52  1  0  0  0
 23 53  1  0  0  0
 24 25  1  0  0  0
 25 26  1  0  0  0
 25 55  1  0  0  0
 26 27  2  0  0  0
 28 29  2  0  0  0
 28 54  1  0  0  0
 29 30  1  0  0  0
M  END
> <s_m_source_file>
C:\GitHub\mcce-charges\epik_inhibitors\output-new\Pazopanib\Pazopanib-input.mol2

> <i_m_source_file_index>
1

> <r_lp_tautomer_probability>
0.0196078226984373

> <r_epik_Ionization_Penalty>
  0.0173

> <r_epik_Ionization_Penalty_Charging>
  0.0000

> <r_epik_Ionization_Penalty_Neutral>
  0.0173

> <r_epik_State_Penalty>
  3.8302

> <r_epik_Charging_Adjusted_Penalty>
3.83020775147521

> <i_epik_Tot_Q>
0

> <i_epik_Tot_abs_Q>
0

$$$$
KIM
                    3D
 Structure written by MMmdl.
 56 59  0  0  1  0            999 V2000
    6.0200   41.7280    5.0700 N   0  0  0  0  0  0
    7.1920   40.7770    6.9400 N   0  3  0  0  0  0
    7.0160   42.6060    4.5910 C   0  0  0  0  0  0
    6.0660   40.9220    6.2230 C   0  0  0  0  0  0
    4.9090   39.5540    7.5850 C   0  0  0  0  0  0
    6.0050   39.3540    8.3730 C   0  0  0  0  0  0
    7.1710   39.9990    8.0230 C   0  0  0  0  0  0
    8.5420   38.8350    9.7940 C   0  0  0  0  0  0
    8.9390   36.8970   11.7100 C   0  0  0  0  0  0
    9.1260   34.8060   13.2690 C   0  0  0  0  0  0
    9.1680   39.2020   10.9720 C   0  0  0  0  0  0
    6.6560   43.9040    0.7890 C   0  0  0  0  0  0
    8.9050   44.3410    3.5490 C   0  0  0  0  0  0
   10.9060   44.3900    2.5140 C   0  0  0  0  0  0
    9.6190   44.7170    6.8690 C   0  0  0  0  0  0
   10.1100   44.2850    5.6000 O   0  0  0  0  0  0
    9.0280   43.8810    4.8390 C   0  0  0  0  0  0
    8.0900   43.0150    5.3570 C   0  0  0  0  0  0
    4.9060   40.3280    6.5070 N   0  0  0  0  0  0
    8.3270   39.8160    8.8150 N   0  0  0  0  0  0
    9.4720   40.6740    8.5500 C   0  0  0  0  0  0
    8.1300   37.5310    9.5890 C   0  0  0  0  0  0
    8.3160   36.5390   10.5290 C   0  0  0  0  0  0
    9.3180   36.2230   12.9050 C   0  0  0  0  0  0
    9.9200   37.0510   13.7630 N   0  0  0  0  0  0
    9.9280   38.2370   13.1340 N   0  0  0  0  0  0
    9.3490   38.2030   11.8960 C   0  0  0  0  0  0
    6.8950   43.0730    3.2980 C   0  0  0  0  0  0
    7.8370   43.9360    2.7820 C   0  0  0  0  0  0
    7.7710   44.4330    1.4910 O   0  0  0  0  0  0
    9.8580   45.2110    3.0320 O   0  0  0  0  0  0
    5.0736   41.6176    4.5204 H   0  0  0  0  0  0
    3.9910   39.0530    7.8540 H   0  0  0  0  0  0
    5.9600   38.7130    9.2410 H   0  0  0  0  0  0
    8.6172   34.2819   12.4466 H   0  0  0  0  0  0
    8.5129   34.7413   14.1800 H   0  0  0  0  0  0
   10.1048   34.3385   13.4518 H   0  0  0  0  0  0
    9.4950   40.2150   11.1540 H   0  0  0  0  0  0
    6.6339   44.3184   -0.2297 H   0  0  0  0  0  0
    5.7290   44.1753    1.3154 H   0  0  0  0  0  0
    6.7413   42.8085    0.7375 H   0  0  0  0  0  0
   11.6949   45.0276    2.0884 H   0  0  0  0  0  0
   10.5030   43.7325    1.7297 H   0  0  0  0  0  0
   11.3271   43.7778    3.3251 H   0  0  0  0  0  0
   10.4614   45.0446    7.4959 H   0  0  0  0  0  0
    9.0966   43.8844    7.3628 H   0  0  0  0  0  0
    8.9207   45.5548    6.7261 H   0  0  0  0  0  0
    8.1950   42.6530    6.3690 H   0  0  0  0  0  0
    9.2089   41.4070    7.7731 H   0  0  0  0  0  0
   10.3174   40.0609    8.2045 H   0  0  0  0  0  0
    9.7552   41.2027    9.4721 H   0  0  0  0  0  0
    7.6440   37.2800    8.6580 H   0  0  0  0  0  0
    7.9890   35.5250   10.3500 H   0  0  0  0  0  0
   10.3739   39.1158   13.6228 H   0  0  0  0  0  0
    6.0600   42.7610    2.6890 H   0  0  0  0  0  0
    8.1115   41.2956    6.6309 H   0  0  0  0  0  0
  1  3  1  0  0  0
  1  4  1  0  0  0
  1 32  1  0  0  0
  2  4  2  0  0  0
  2  7  1  0  0  0
  2 56  1  0  0  0
  3 18  2  0  0  0
  3 28  1  0  0  0
  4 19  1  0  0  0
  5  6  1  0  0  0
  5 19  2  0  0  0
  5 33  1  0  0  0
  6  7  2  0  0  0
  6 34  1  0  0  0
  7 20  1  0  0  0
  8 11  1  0  0  0
  8 20  1  0  0  0
  8 22  2  0  0  0
  9 23  2  0  0  0
  9 24  1  0  0  0
  9 27  1  0  0  0
 10 24  1  0  0  0
 10 35  1  0  0  0
 10 36  1  0  0  0
 10 37  1  0  0  0
 11 27  2  0  0  0
 11 38  1  0  0  0
 12 30  1  0  0  0
 12 39  1  0  0  0
 12 40  1  0  0  0
 12 41  1  0  0  0
 13 17  2  0  0  0
 13 29  1  0  0  0
 13 31  1  0  0  0
 14 31  1  0  0  0
 14 42  1  0  0  0
 14 43  1  0  0  0
 14 44  1  0  0  0
 15 16  1  0  0  0
 15 45  1  0  0  0
 15 46  1  0  0  0
 15 47  1  0  0  0
 16 17  1  0  0  0
 17 18  1  0  0  0
 18 48  1  0  0  0
 20 21  1  0  0  0
 21 49  1  0  0  0
 21 50  1  0  0  0
 21 51  1  0  0  0
 22 23  1  0  0  0
 22 52  1  0  0  0
 23 53  1  0  0  0
 24 25  2  0  0  0
 25 26  1  0  0  0
 26 27  1  0  0  0
 26 54  1  0  0  0
 28 29  2  0  0  0
 28 55  1  0  0  0
 29 30  1  0  0  0
M  CHG  1   2   1
M  END
> <s_m_source_file>
C:\GitHub\mcce-charges\epik_inhibitors\output-new\Pazopanib\Pazopanib-input.mol2

> <i_m_source_file_index>
1

> <r_lp_tautomer_probability>
0.00011425953511417

> <r_epik_Ionization_Penalty>
  2.2547

> <r_epik_Ionization_Penalty_Charging>
  2.2547

> <r_epik_Ionization_Penalty_Neutral>
  0.0001

> <r_epik_State_Penalty>
  4.1090

> <r_epik_Charging_Adjusted_Penalty>
6.36367791268325

> <i_epik_Tot_Q>
1

> <i_epik_Tot_abs_Q>
1

$$$$
