@<TRIPOS>MOLECULE
KIM
   55    58     1     0     0
SMALL
NO_CHARGES

@<TRIPOS>ATOM
      1  N1         6.0200   41.7280    5.0700 N.pl3     1 KIM         0.0000
      2  N3         7.1920   40.7770    6.9400 N.ar      1 KIM         0.0000
      3  C4         7.0160   42.6060    4.5910 C.ar      1 KIM         0.0000
      4  C5         6.0660   40.9220    6.2230 C.ar      1 KIM         0.0000
      5  C6         4.9090   39.5540    7.5850 C.ar      1 KIM         0.0000
      6  C7         6.0050   39.3540    8.3730 C.ar      1 KIM         0.0000
      7  C8         7.1710   39.9990    8.0230 C.ar      1 KIM         0.0000
      8  C10        8.5420   38.8350    9.7940 C.ar      1 KIM         0.0000
      9  C13        8.9390   36.8970   11.7100 C.ar      1 KIM         0.0000
     10  C15        9.1260   34.8060   13.2690 C.3       1 KIM         0.0000
     11  C17        9.1680   39.2020   10.9720 C.ar      1 KIM         0.0000
     12  C20        6.6560   43.9040    0.7890 C.3       1 KIM         0.0000
     13  C21        8.9050   44.3410    3.5490 C.ar      1 KIM         0.0000
     14  C22       10.9060   44.3900    2.5140 C.3       1 KIM         0.0000
     15  C1         9.6190   44.7170    6.8690 C.3       1 KIM         0.0000
     16  O1        10.1100   44.2850    5.6000 O.3       1 KIM         0.0000
     17  C2         9.0280   43.8810    4.8390 C.ar      1 KIM         0.0000
     18  C3         8.0900   43.0150    5.3570 C.ar      1 KIM         0.0000
     19  N2         4.9060   40.3280    6.5070 N.ar      1 KIM         0.0000
     20  N4         8.3270   39.8160    8.8150 N.pl3     1 KIM         0.0000
     21  C9         9.4720   40.6740    8.5500 C.3       1 KIM         0.0000
     22  C11        8.1300   37.5310    9.5890 C.ar      1 KIM         0.0000
     23  C12        8.3160   36.5390   10.5290 C.ar      1 KIM         0.0000
     24  C14        9.3180   36.2230   12.9050 C.ar      1 KIM         0.0000
     25  N5         9.9200   37.0510   13.7630 N.ar      1 KIM         0.0000
     26  N6         9.9280   38.2370   13.1340 N.pl3     1 KIM         0.0000
     27  C16        9.3490   38.2030   11.8960 C.ar      1 KIM         0.0000
     28  C18        6.8950   43.0730    3.2980 C.ar      1 KIM         0.0000
     29  C19        7.8370   43.9360    2.7820 C.ar      1 KIM         0.0000
     30  O2         7.7710   44.4330    1.4910 O.3       1 KIM         0.0000
     31  O3         9.8580   45.2110    3.0320 O.3       1 KIM         0.0000
     32  HN1        5.1830   41.6720    4.5260 H         1 KIM         0.0000
     33  H6         3.9910   39.0530    7.8540 H         1 KIM         0.0000
     34  H7         5.9600   38.7130    9.2410 H         1 KIM         0.0000
     35  H15        9.0780   34.1950   12.3550 H         1 KIM         0.0000
     36 H15A        9.9690   34.4700   13.8910 H         1 KIM         0.0000
     37 H15B        8.1880   34.6960   13.8320 H         1 KIM         0.0000
     38  H17        9.4950   40.2150   11.1540 H         1 KIM         0.0000
     39  H20        5.8150   43.7670    1.4850 H         1 KIM         0.0000
     40 H20A        6.3610   44.6010   -0.0090 H         1 KIM         0.0000
     41 H20B        6.9280   42.9340    0.3470 H         1 KIM         0.0000
     42  H22       10.7160   44.1790    1.4510 H         1 KIM         0.0000
     43 H22A       11.8670   44.9140    2.6170 H         1 KIM         0.0000
     44 H22B       10.9420   43.4440    3.0750 H         1 KIM         0.0000
     45  H1        10.4600   44.8280    7.5700 H         1 KIM         0.0000
     46  H1A        9.1070   45.6840    6.7540 H         1 KIM         0.0000
     47  H1B        8.9110   43.9720    7.2610 H         1 KIM         0.0000
     48  H3         8.1950   42.6530    6.3690 H         1 KIM         0.0000
     49  H9         9.5270   40.8910    7.4730 H         1 KIM         0.0000
     50  H9A        9.3610   41.6160    9.1080 H         1 KIM         0.0000
     51  H9B       10.3930   40.1640    8.8690 H         1 KIM         0.0000
     52  H11        7.6440   37.2800    8.6580 H         1 KIM         0.0000
     53  H12        7.9890   35.5250   10.3500 H         1 KIM         0.0000
     54  HN6       10.3200   39.0660   13.5330 H         1 KIM         0.0000
     55  H18        6.0600   42.7610    2.6890 H         1 KIM         0.0000
@<TRIPOS>BOND
     1    1    3 1
     2    1    4 1
     3    1   32 1
     4    2    4 ar
     5    2    7 ar
     6    3   18 ar
     7    3   28 ar
     8    4   19 ar
     9    5    6 ar
    10    5   19 ar
    11    5   33 1
    12    6    7 ar
    13    6   34 1
    14    7   20 1
    15    8   11 ar
    16    8   20 1
    17    8   22 ar
    18    9   23 ar
    19    9   24 ar
    20    9   27 ar
    21   10   24 1
    22   10   35 1
    23   10   36 1
    24   10   37 1
    25   11   27 ar
    26   11   38 1
    27   12   30 1
    28   12   39 1
    29   12   40 1
    30   12   41 1
    31   13   17 ar
    32   13   29 ar
    33   13   31 1
    34   14   31 1
    35   14   42 1
    36   14   43 1
    37   14   44 1
    38   15   16 1
    39   15   45 1
    40   15   46 1
    41   15   47 1
    42   16   17 1
    43   17   18 ar
    44   18   48 1
    45   20   21 1
    46   21   49 1
    47   21   50 1
    48   21   51 1
    49   22   23 ar
    50   22   52 1
    51   23   53 1
    52   24   25 ar
    53   25   26 ar
    54   26   27 ar
    55   26   54 1
    56   28   29 ar
    57   28   55 1
    58   29   30 1
@<TRIPOS>SUBSTRUCTURE
     1 KIM         1 GROUP 0 A     ****
