@<TRIPOS>MOLECULE
4-methyl-~{N}-[3-(4-methylimidazol-1-yl)-5-(trifluoromethyl)phenyl]-3-[[4-(3-pyridyl)pyrimidin-2-yl]amino]benzamide
   61    65     1     0     0
SMALL
USER_CHARGES

@<TRIPOS>ATOM
      1 O17        27.4370    2.8950   51.2430 O.2       1 NIL        -0.5812
      2 C16        27.1160    2.6680   52.3840 C.2       1 NIL         0.6916
      3 N14        26.0130    3.0980   53.0150 N.am      1 NIL        -0.4726
      4 C11        25.1140    4.0420   52.5350 C.ar      1 NIL         0.1054
      5 C9         24.3180    4.8060   53.4240 C.ar      1 NIL        -0.1770
      6 C8         23.4180    5.7650   52.9510 C.ar      1 NIL         0.0632
      7 N51        22.6560    6.5560   53.8240 N.pl3     1 NIL        -0.1481
      8 C56        22.3140    6.3130   55.1530 C.ar      1 NIL        -0.2495
      9 C55        21.4970    7.3060   55.5670 C.ar      1 NIL         0.3184
     10 C58        20.8800    7.4930   56.9320 C.3       1 NIL        -0.1181
     11 N54        21.3460    8.1740   54.5420 N.ar      1 NIL        -0.6556
     12 C52        22.0110    7.6890   53.5220 C.ar      1 NIL         0.4167
     13 C6         23.2420    5.9220   51.5800 C.ar      1 NIL        -0.1475
     14 C12        24.8860    4.1760   51.1480 C.ar      1 NIL        -0.1656
     15 C5         23.9850    5.1690   50.6680 C.ar      1 NIL        -0.1074
     16 C2         23.8080    5.3300   49.1930 C.3       1 NIL         0.6867
     17 F4         23.7250    4.1770   48.5000 F         1 NIL        -0.2342
     18 F3         22.6440    5.9040   48.9120 F         1 NIL        -0.2342
     19 F1         24.8490    5.9670   48.6180 F         1 NIL        -0.2342
     20 C18        27.8680    1.5870   53.0510 C.ar      1 NIL        -0.1484
     21 C25        27.5140    1.0020   54.2760 C.ar      1 NIL        -0.1072
     22 C23        28.2050   -0.1000   54.7820 C.ar      1 NIL        -0.1340
     23 C22        29.2140   -0.7110   54.0550 C.ar      1 NIL        -0.0266
     24 C27        29.9540   -1.9170   54.6160 C.3       1 NIL        -0.0610
     25 C21        29.5010   -0.1980   52.7910 C.ar      1 NIL         0.1436
     26 C19        28.8130    0.9240   52.3120 C.ar      1 NIL        -0.0924
     27 N31        30.6200   -0.6930   52.1090 N.pl3     1 NIL        -0.7501
     28 C33        31.8450   -0.0340   52.2300 C.ar      1 NIL         0.8922
     29 N40        32.1570    1.0110   52.9860 N.ar      1 NIL        -0.7353
     30 C38        33.4140    1.4820   52.8790 C.ar      1 NIL         0.4618
     31 C36        34.3070    0.9710   52.0170 C.ar      1 NIL        -0.4076
     32 C35        33.9360   -0.0810   51.2560 C.ar      1 NIL         0.5367
     33 N34        32.7080   -0.6040   51.3500 N.ar      1 NIL        -0.7477
     34 C41        34.8530   -0.7620   50.3050 C.ar      1 NIL        -0.2756
     35 C49        36.1840   -0.3460   50.1410 C.ar      1 NIL        -0.0689
     36 C47        36.9880   -1.0040   49.2190 C.ar      1 NIL        -0.2504
     37 C45        36.4440   -2.0750   48.5110 C.ar      1 NIL         0.4050
     38 N44        35.1680   -2.4770   48.6290 N.ar      1 NIL        -0.6659
     39 C42        34.4000   -1.8440   49.5250 C.ar      1 NIL         0.4313
     40 HN14       25.7541    2.6960   54.0056 H         1 NIL         0.3246
     41 H9         24.4090    4.6440   54.4880 H         1 NIL         0.1875
     42 H56        22.6450    5.4750   55.7490 H         1 NIL         0.1811
     43 H58        21.1569    6.6472   57.5785 H         1 NIL         0.0494
     44 H58A       19.7851    7.5383   56.8364 H         1 NIL         0.0494
     45 H58B       21.2484    8.4297   57.3757 H         1 NIL         0.0494
     46 H52        22.0360    8.1520   52.5470 H         1 NIL         0.0751
     47 H6         22.5200    6.6370   51.2150 H         1 NIL         0.1611
     48 H12        25.3950    3.5260   50.4520 H         1 NIL         0.1512
     49 H25        26.6890    1.4130   54.8390 H         1 NIL         0.1361
     50 H23        27.9480   -0.4840   55.7580 H         1 NIL         0.1431
     51 H27        29.5697   -2.1484   55.6204 H         1 NIL         0.0560
     52 H27A       31.0289   -1.6915   54.6776 H         1 NIL         0.0560
     53 H27B       29.7982   -2.7826   53.9554 H         1 NIL         0.0560
     54 H19        29.0370    1.2820   51.3180 H         1 NIL         0.1637
     55 HN31       30.5293   -1.5939   51.4844 H         1 NIL         0.4628
     56 H38        33.7160    2.3040   53.5120 H         1 NIL         0.0301
     57 H36        35.2980    1.3910   51.9340 H         1 NIL         0.1598
     58 H49        36.5770    0.4740   50.7240 H         1 NIL         0.1450
     59 H47        38.0090   -0.6940   49.0550 H         1 NIL         0.1471
     60 H45        37.0860   -2.6120   47.8280 H         1 NIL         0.0255
     61 H42        33.3820   -2.1800   49.6560 H         1 NIL         0.0336
@<TRIPOS>BOND
     1    1    2 2
     2    2    3 am
     3    2   20 1
     4    3    4 1
     5    3   40 1
     6    4    5 ar
     7    4   14 ar
     8    5    6 ar
     9    5   41 1
    10    6    7 1
    11    6   13 ar
    12    7    8 ar
    13    7   12 ar
    14    8    9 ar
    15    8   42 1
    16    9   10 1
    17    9   11 ar
    18   10   43 1
    19   10   44 1
    20   10   45 1
    21   11   12 ar
    22   12   46 1
    23   13   15 ar
    24   13   47 1
    25   14   15 ar
    26   14   48 1
    27   15   16 1
    28   16   17 1
    29   16   18 1
    30   16   19 1
    31   20   21 ar
    32   20   26 ar
    33   21   22 ar
    34   21   49 1
    35   22   23 ar
    36   22   50 1
    37   23   24 1
    38   23   25 ar
    39   24   51 1
    40   24   52 1
    41   24   53 1
    42   25   26 ar
    43   25   27 1
    44   26   54 1
    45   27   28 1
    46   27   55 1
    47   28   29 ar
    48   28   33 ar
    49   29   30 ar
    50   30   31 ar
    51   30   56 1
    52   31   32 ar
    53   31   57 1
    54   32   33 ar
    55   32   34 1
    56   34   35 ar
    57   34   39 ar
    58   35   36 ar
    59   35   58 1
    60   36   37 ar
    61   36   59 1
    62   37   38 ar
    63   37   60 1
    64   38   39 ar
    65   39   61 1
@<TRIPOS>SUBSTRUCTURE
     1 NIL         1 GROUP   0 A     ****
@<TRIPOS>MOLECULE
4-methyl-~{N}-[3-(5-methyl-1,2-dihydroimidazol-2-ylium-3-yl)-5-(trifluoromethyl)phenyl]-3-[[4-(3-pyridyl)pyrimidin-2-yl]amino]benzamide
   62    66     1     0     0
SMALL
USER_CHARGES

@<TRIPOS>ATOM
      1 O17        27.4370    2.8950   51.2430 O.2       1 NIL        -0.5528
      2 C16        27.1160    2.6680   52.3840 C.2       1 NIL         0.6945
      3 N14        26.0130    3.0980   53.0150 N.am      1 NIL        -0.4729
      4 C11        25.1140    4.0420   52.5350 C.ar      1 NIL         0.1287
      5 C9         24.3180    4.8060   53.4240 C.ar      1 NIL        -0.1786
      6 C8         23.4180    5.7650   52.9510 C.ar      1 NIL         0.1113
      7 N51        22.6560    6.5560   53.8240 N.pl3     1 NIL        -0.2635
      8 C56        22.3140    6.3130   55.1530 C.ar      1 NIL        -0.0262
      9 C55        21.4970    7.3060   55.5670 C.ar      1 NIL         0.0674
     10 C58        20.8800    7.4930   56.9320 C.3       1 NIL        -0.0642
     11 N54        21.3460    8.1740   54.5420 N.pl3     1 NIL        -0.5101
     12 C52        22.0110    7.6890   53.5220 C.cat     1 NIL         0.1916
     13 C6         23.2420    5.9220   51.5800 C.ar      1 NIL        -0.1316
     14 C12        24.8860    4.1760   51.1480 C.ar      1 NIL        -0.0928
     15 C5         23.9850    5.1690   50.6680 C.ar      1 NIL        -0.1106
     16 C2         23.8080    5.3300   49.1930 C.3       1 NIL         0.6905
     17 F4         23.7250    4.1770   48.5000 F         1 NIL        -0.2196
     18 F3         22.6440    5.9040   48.9120 F         1 NIL        -0.2196
     19 F1         24.8490    5.9670   48.6180 F         1 NIL        -0.2196
     20 C18        27.8680    1.5870   53.0510 C.ar      1 NIL        -0.1559
     21 C25        27.5140    1.0020   54.2760 C.ar      1 NIL        -0.1174
     22 C23        28.2050   -0.1000   54.7820 C.ar      1 NIL        -0.1298
     23 C22        29.2140   -0.7110   54.0550 C.ar      1 NIL        -0.0130
     24 C27        29.9540   -1.9170   54.6160 C.3       1 NIL        -0.0642
     25 C21        29.5010   -0.1980   52.7910 C.ar      1 NIL         0.1525
     26 C19        28.8130    0.9240   52.3120 C.ar      1 NIL        -0.0996
     27 N31        30.6200   -0.6930   52.1090 N.pl3     1 NIL        -0.7387
     28 C33        31.8450   -0.0340   52.2300 C.ar      1 NIL         0.8717
     29 N40        32.1570    1.0110   52.9860 N.ar      1 NIL        -0.7348
     30 C38        33.4140    1.4820   52.8790 C.ar      1 NIL         0.4582
     31 C36        34.3070    0.9710   52.0170 C.ar      1 NIL        -0.3894
     32 C35        33.9360   -0.0810   51.2560 C.ar      1 NIL         0.5366
     33 N34        32.7080   -0.6040   51.3500 N.ar      1 NIL        -0.7335
     34 C41        34.8530   -0.7620   50.3050 C.ar      1 NIL        -0.2839
     35 C49        36.1840   -0.3460   50.1410 C.ar      1 NIL        -0.0556
     36 C47        36.9880   -1.0040   49.2190 C.ar      1 NIL        -0.2494
     37 C45        36.4440   -2.0750   48.5110 C.ar      1 NIL         0.4098
     38 N44        35.1680   -2.4770   48.6290 N.ar      1 NIL        -0.6604
     39 C42        34.4000   -1.8440   49.5250 C.ar      1 NIL         0.4206
     40 HN14       25.7541    2.6960   54.0056 H         1 NIL         0.3301
     41 H9         24.4090    4.6440   54.4880 H         1 NIL         0.1468
     42 H56        22.6450    5.4750   55.7490 H         1 NIL         0.2286
     43 H58        21.1569    6.6472   57.5785 H         1 NIL         0.0897
     44 H58A       19.7851    7.5383   56.8364 H         1 NIL         0.0897
     45 H58B       21.2484    8.4297   57.3757 H         1 NIL         0.0897
     46 H52        22.0360    8.1520   52.5470 H         1 NIL         0.2614
     47 H6         22.5200    6.6370   51.2150 H         1 NIL         0.1572
     48 H12        25.3950    3.5260   50.4520 H         1 NIL         0.2190
     49 H25        26.6890    1.4130   54.8390 H         1 NIL         0.1254
     50 H23        27.9480   -0.4840   55.7580 H         1 NIL         0.1452
     51 H27        29.5697   -2.1484   55.6204 H         1 NIL         0.0615
     52 H27A       31.0289   -1.6915   54.6776 H         1 NIL         0.0615
     53 H27B       29.7982   -2.7826   53.9554 H         1 NIL         0.0615
     54 H19        29.0370    1.2820   51.3180 H         1 NIL         0.1614
     55 HN31       30.5293   -1.5939   51.4844 H         1 NIL         0.4541
     56 H38        33.7160    2.3040   53.5120 H         1 NIL         0.0339
     57 H36        35.2980    1.3910   51.9340 H         1 NIL         0.1673
     58 H49        36.5770    0.4740   50.7240 H         1 NIL         0.1488
     59 H47        38.0090   -0.6940   49.0550 H         1 NIL         0.1504
     60 H45        37.0860   -2.6120   47.8280 H         1 NIL         0.0294
     61 H42        33.3820   -2.1800   49.6560 H         1 NIL         0.0284
     62 H62        20.7456    9.0857   54.6773 H         1 NIL         0.5134
@<TRIPOS>BOND
     1    1    2 2
     2    2    3 am
     3    2   20 1
     4    3    4 1
     5    3   40 1
     6    4    5 ar
     7    4   14 ar
     8    5    6 ar
     9    5   41 1
    10    6    7 1
    11    6   13 ar
    12    7    8 ar
    13    7   12 ar
    14    8    9 ar
    15    8   42 1
    16    9   10 1
    17    9   11 ar
    18   10   43 1
    19   10   44 1
    20   10   45 1
    21   11   12 ar
    22   11   62 1
    23   12   46 1
    24   13   15 ar
    25   13   47 1
    26   14   15 ar
    27   14   48 1
    28   15   16 1
    29   16   17 1
    30   16   18 1
    31   16   19 1
    32   20   21 ar
    33   20   26 ar
    34   21   22 ar
    35   21   49 1
    36   22   23 ar
    37   22   50 1
    38   23   24 1
    39   23   25 ar
    40   24   51 1
    41   24   52 1
    42   24   53 1
    43   25   26 ar
    44   25   27 1
    45   26   54 1
    46   27   28 1
    47   27   55 1
    48   28   29 ar
    49   28   33 ar
    50   29   30 ar
    51   30   31 ar
    52   30   56 1
    53   31   32 ar
    54   31   57 1
    55   32   33 ar
    56   32   34 1
    57   34   35 ar
    58   34   39 ar
    59   35   36 ar
    60   35   58 1
    61   36   37 ar
    62   36   59 1
    63   37   38 ar
    64   37   60 1
    65   38   39 ar
    66   39   61 1
@<TRIPOS>SUBSTRUCTURE
     1 NIL         1 GROUP   0 A     ****
@<TRIPOS>MOLECULE
3-[[4-(1,2-dihydropyridin-2-ylium-5-yl)pyrimidin-2-yl]amino]-4-methyl-~{N}-[3-(4-methylimidazol-1-yl)-5-(trifluoromethyl)phenyl]benzamide
   62    66     1     0     0
SMALL
USER_CHARGES

@<TRIPOS>ATOM
      1 O17        27.4370    2.8950   51.2430 O.2       1 NIL        -0.5835
      2 C16        27.1160    2.6680   52.3840 C.2       1 NIL         0.6869
      3 N14        26.0130    3.0980   53.0150 N.am      1 NIL        -0.4651
      4 C11        25.1140    4.0420   52.5350 C.ar      1 NIL         0.0945
      5 C9         24.3180    4.8060   53.4240 C.ar      1 NIL        -0.1738
      6 C8         23.4180    5.7650   52.9510 C.ar      1 NIL         0.0663
      7 N51        22.6560    6.5560   53.8240 N.pl3     1 NIL        -0.1513
      8 C56        22.3140    6.3130   55.1530 C.ar      1 NIL        -0.2477
      9 C55        21.4970    7.3060   55.5670 C.ar      1 NIL         0.3236
     10 C58        20.8800    7.4930   56.9320 C.3       1 NIL        -0.1199
     11 N54        21.3460    8.1740   54.5420 N.ar      1 NIL        -0.6529
     12 C52        22.0110    7.6890   53.5220 C.ar      1 NIL         0.4134
     13 C6         23.2420    5.9220   51.5800 C.ar      1 NIL        -0.1416
     14 C12        24.8860    4.1760   51.1480 C.ar      1 NIL        -0.1598
     15 C5         23.9850    5.1690   50.6680 C.ar      1 NIL        -0.1070
     16 C2         23.8080    5.3300   49.1930 C.3       1 NIL         0.6862
     17 F4         23.7250    4.1770   48.5000 F         1 NIL        -0.2312
     18 F3         22.6440    5.9040   48.9120 F         1 NIL        -0.2312
     19 F1         24.8490    5.9670   48.6180 F         1 NIL        -0.2312
     20 C18        27.8680    1.5870   53.0510 C.ar      1 NIL        -0.1388
     21 C25        27.5140    1.0020   54.2760 C.ar      1 NIL        -0.0924
     22 C23        28.2050   -0.1000   54.7820 C.ar      1 NIL        -0.1310
     23 C22        29.2140   -0.7110   54.0550 C.ar      1 NIL        -0.0214
     24 C27        29.9540   -1.9170   54.6160 C.3       1 NIL        -0.0620
     25 C21        29.5010   -0.1980   52.7910 C.ar      1 NIL         0.1113
     26 C19        28.8130    0.9240   52.3120 C.ar      1 NIL        -0.0856
     27 N31        30.6200   -0.6930   52.1090 N.pl3     1 NIL        -0.7212
     28 C33        31.8450   -0.0340   52.2300 C.ar      1 NIL         0.9133
     29 N40        32.1570    1.0110   52.9860 N.ar      1 NIL        -0.6976
     30 C38        33.4140    1.4820   52.8790 C.ar      1 NIL         0.4849
     31 C36        34.3070    0.9710   52.0170 C.ar      1 NIL        -0.4072
     32 C35        33.9360   -0.0810   51.2560 C.ar      1 NIL         0.4843
     33 N34        32.7080   -0.6040   51.3500 N.ar      1 NIL        -0.7738
     34 C41        34.8530   -0.7620   50.3050 C.ar      1 NIL        -0.1321
     35 C49        36.1840   -0.3460   50.1410 C.ar      1 NIL         0.0058
     36 C47        36.9880   -1.0040   49.2190 C.ar      1 NIL        -0.1380
     37 C45        36.4440   -2.0750   48.5110 C.cat     1 NIL         0.0790
     38 N44        35.1680   -2.4770   48.6290 N.pl3     1 NIL        -0.4497
     39 C42        34.4000   -1.8440   49.5250 C.ar      1 NIL         0.1085
     40 HN14       25.7541    2.6960   54.0056 H         1 NIL         0.3253
     41 H9         24.4090    4.6440   54.4880 H         1 NIL         0.1845
     42 H56        22.6450    5.4750   55.7490 H         1 NIL         0.1836
     43 H58        21.1569    6.6472   57.5785 H         1 NIL         0.0521
     44 H58A       19.7851    7.5383   56.8364 H         1 NIL         0.0521
     45 H58B       21.2484    8.4297   57.3757 H         1 NIL         0.0521
     46 H52        22.0360    8.1520   52.5470 H         1 NIL         0.0700
     47 H6         22.5200    6.6370   51.2150 H         1 NIL         0.1661
     48 H12        25.3950    3.5260   50.4520 H         1 NIL         0.1520
     49 H25        26.6890    1.4130   54.8390 H         1 NIL         0.1470
     50 H23        27.9480   -0.4840   55.7580 H         1 NIL         0.1517
     51 H27        29.5697   -2.1484   55.6204 H         1 NIL         0.0560
     52 H27A       31.0289   -1.6915   54.6776 H         1 NIL         0.0560
     53 H27B       29.7982   -2.7826   53.9554 H         1 NIL         0.0560
     54 H19        29.0370    1.2820   51.3180 H         1 NIL         0.1616
     55 HN31       30.5293   -1.5939   51.4844 H         1 NIL         0.4647
     56 H38        33.7160    2.3040   53.5120 H         1 NIL         0.0521
     57 H36        35.2980    1.3910   51.9340 H         1 NIL         0.1627
     58 H49        36.5770    0.4740   50.7240 H         1 NIL         0.1982
     59 H47        38.0090   -0.6940   49.0550 H         1 NIL         0.2038
     60 H45        37.0860   -2.6120   47.8280 H         1 NIL         0.2149
     61 H42        33.3820   -2.1800   49.6560 H         1 NIL         0.2247
     62 H62        34.7898   -3.2980   48.0022 H         1 NIL         0.5018
@<TRIPOS>BOND
     1    1    2 2
     2    2    3 am
     3    2   20 1
     4    3    4 1
     5    3   40 1
     6    4    5 ar
     7    4   14 ar
     8    5    6 ar
     9    5   41 1
    10    6    7 1
    11    6   13 ar
    12    7    8 ar
    13    7   12 ar
    14    8    9 ar
    15    8   42 1
    16    9   10 1
    17    9   11 ar
    18   10   43 1
    19   10   44 1
    20   10   45 1
    21   11   12 ar
    22   12   46 1
    23   13   15 ar
    24   13   47 1
    25   14   15 ar
    26   14   48 1
    27   15   16 1
    28   16   17 1
    29   16   18 1
    30   16   19 1
    31   20   21 ar
    32   20   26 ar
    33   21   22 ar
    34   21   49 1
    35   22   23 ar
    36   22   50 1
    37   23   24 1
    38   23   25 ar
    39   24   51 1
    40   24   52 1
    41   24   53 1
    42   25   26 ar
    43   25   27 1
    44   26   54 1
    45   27   28 1
    46   27   55 1
    47   28   29 ar
    48   28   33 ar
    49   29   30 ar
    50   30   31 ar
    51   30   56 1
    52   31   32 ar
    53   31   57 1
    54   32   33 ar
    55   32   34 1
    56   34   35 ar
    57   34   39 ar
    58   35   36 ar
    59   35   58 1
    60   36   37 ar
    61   36   59 1
    62   37   38 ar
    63   37   60 1
    64   38   39 ar
    65   38   62 1
    66   39   61 1
@<TRIPOS>SUBSTRUCTURE
     1 NIL         1 GROUP   0 A     ****
