FMM
                    3D
 Structure written by MMmdl.
 67 71  0  0  1  0            999 V2000
   22.6040   34.4870   31.1410 C   0  0  0  0  0  0
   24.0360   33.4650   31.3500 S   0  0  0  0  0  0
   25.0530   34.2040   32.0670 O   0  0  0  0  0  0
   24.5430   33.0770   30.0530 O   0  0  0  0  0  0
   23.5870   31.9800   32.2910 C   0  0  0  0  0  0
   22.0610   31.8360   32.3240 C   0  0  0  0  0  0
   21.5690   32.1840   33.6650 N   0  3  0  0  0  0
   20.9140   31.0190   34.2650 C   0  0  0  0  0  0
   19.4160   31.2080   34.2230 C   0  0  0  0  0  0
   18.6740   30.9770   33.1210 C   0  0  0  0  0  0
   17.4450   31.2370   33.4210 C   0  0  0  0  0  0
   17.4090   31.6450   34.7310 C   0  0  0  0  0  0
   18.6550   31.6530   35.3630 O   0  0  0  0  0  0
   16.1760   32.0580   35.4070 C   0  0  0  0  0  0
   14.9580   31.9860   34.7350 C   0  0  0  0  0  0
   13.8070   32.4020   35.3590 C   0  0  0  0  0  0
   13.8490   32.8900   36.6640 C   0  0  0  0  0  0
   12.6830   33.3050   37.2760 N   0  0  0  0  0  0
   12.7080   33.7900   38.5680 C   0  0  0  0  0  0
   13.8990   33.8630   39.2600 N   0  0  0  0  0  0
   15.0770   33.4520   38.6680 C   0  0  0  0  0  0
   16.2820   33.5270   39.3660 N   0  0  0  0  0  0
   16.3320   33.8430   40.7350 C   0  0  0  0  0  0
   17.1180   34.9090   41.1780 C   0  0  0  0  0  0
   17.1640   35.2150   42.5350 C   0  0  0  0  0  0
   16.4280   34.4570   43.4380 C   0  0  0  0  0  0
   16.4460   34.7470   44.8280 O   0  0  0  0  0  0
   17.0650   36.0020   45.1430 C   0  0  0  0  0  0
   16.0850   37.1810   44.9840 C   0  0  0  0  0  0
   16.5190   38.4620   45.2460 C   0  0  0  0  0  0
   15.6530   39.5270   45.1020 C   0  0  0  0  0  0
   14.3540   39.3120   44.6930 C   0  0  0  0  0  0
   13.9160   38.0360   44.4290 C   0  0  0  0  0  0
   12.6790   37.8370   44.0350 F   0  0  0  0  0  0
   14.7720   36.9660   44.5730 C   0  0  0  0  0  0
   15.6650   33.4150   42.9990 C   0  0  0  0  0  0
   14.7840   32.5140   44.1280 Cl  0  0  0  0  0  0
   15.6070   33.0980   41.6600 C   0  0  0  0  0  0
   15.0530   32.9590   37.3490 C   0  0  0  0  0  0
   16.2200   32.5450   36.7310 C   0  0  0  0  0  0
   22.8762   35.3873   30.5705 H   0  0  0  0  0  0
   22.2164   34.7812   32.1275 H   0  0  0  0  0  0
   21.8304   33.9270   30.5952 H   0  0  0  0  0  0
   24.0280   31.0942   31.8105 H   0  0  0  0  0  0
   23.9688   32.0679   33.3189 H   0  0  0  0  0  0
   21.6128   32.5116   31.5805 H   0  0  0  0  0  0
   21.7855   30.7974   32.0888 H   0  0  0  0  0  0
   22.4145   32.4940   34.2967 H   0  0  0  0  0  0
   21.1859   30.1146   33.7010 H   0  0  0  0  0  0
   21.2414   30.9119   35.3097 H   0  0  0  0  0  0
   19.0180   30.6310   32.1320 H   0  0  0  0  0  0
   16.6070   31.1330   32.7120 H   0  0  0  0  0  0
   14.9050   31.5980   33.7040 H   0  0  0  0  0  0
   12.8500   32.3440   34.8130 H   0  0  0  0  0  0
   11.7720   34.1210   39.0500 H   0  0  0  0  0  0
   17.2320   33.3361   38.8454 H   0  0  0  0  0  0
   17.7010   35.5080   40.4580 H   0  0  0  0  0  0
   17.7820   36.0560   42.8940 H   0  0  0  0  0  0
   17.4183   35.9854   46.1846 H   0  0  0  0  0  0
   17.9181   36.1695   44.4691 H   0  0  0  0  0  0
   17.5590   38.6350   45.5710 H   0  0  0  0  0  0
   16.0000   40.5520   45.3140 H   0  0  0  0  0  0
   13.6630   40.1640   44.5770 H   0  0  0  0  0  0
   14.4090   35.9460   44.3610 H   0  0  0  0  0  0
   14.9830   32.2510   41.3300 H   0  0  0  0  0  0
   17.1720   32.6020   37.2860 H   0  0  0  0  0  0
   20.8469   33.0102   33.5877 H   0  0  0  0  0  0
  1  2  1  0  0  0
  1 41  1  0  0  0
  1 42  1  0  0  0
  1 43  1  0  0  0
  2  3  2  0  0  0
  2  4  2  0  0  0
  2  5  1  0  0  0
  5  6  1  0  0  0
  5 44  1  0  0  0
  5 45  1  0  0  0
  6  7  1  0  0  0
  6 46  1  0  0  0
  6 47  1  0  0  0
  7  8  1  0  0  0
  7 48  1  0  0  0
  7 67  1  0  0  0
  8  9  1  0  0  0
  8 49  1  0  0  0
  8 50  1  0  0  0
  9 10  2  0  0  0
  9 13  1  0  0  0
 10 11  1  0  0  0
 10 51  1  0  0  0
 11 12  2  0  0  0
 11 52  1  0  0  0
 12 13  1  0  0  0
 12 14  1  0  0  0
 14 15  2  0  0  0
 14 40  1  0  0  0
 15 16  1  0  0  0
 15 53  1  0  0  0
 16 17  2  0  0  0
 16 54  1  0  0  0
 17 18  1  0  0  0
 17 39  1  0  0  0
 18 19  2  0  0  0
 19 20  1  0  0  0
 19 55  1  0  0  0
 20 21  2  0  0  0
 21 22  1  0  0  0
 21 39  1  0  0  0
 22 23  1  0  0  0
 22 56  1  0  0  0
 23 24  2  0  0  0
 23 38  1  0  0  0
 24 25  1  0  0  0
 24 57  1  0  0  0
 25 26  2  0  0  0
 25 58  1  0  0  0
 26 27  1  0  0  0
 26 36  1  0  0  0
 27 28  1  0  0  0
 28 29  1  0  0  0
 28 59  1  0  0  0
 28 60  1  0  0  0
 29 30  2  0  0  0
 29 35  1  0  0  0
 30 31  1  0  0  0
 30 61  1  0  0  0
 31 32  2  0  0  0
 31 62  1  0  0  0
 32 33  1  0  0  0
 32 63  1  0  0  0
 33 34  1  0  0  0
 33 35  2  0  0  0
 35 64  1  0  0  0
 36 37  1  0  0  0
 36 38  2  0  0  0
 38 65  1  0  0  0
 39 40  2  0  0  0
 40 66  1  0  0  0
M  CHG  1   7   1
M  END
> <s_m_source_file>
C:\GitHub\mcce-charges\epik_inhibitors\output-new\Lapatinib\Lapatinib-input.mol2

> <i_m_source_file_index>
1

> <r_lp_tautomer_probability>
0.999978000241998

> <r_epik_Ionization_Penalty>
  0.0380

> <r_epik_Ionization_Penalty_Charging>
  0.0378

> <r_epik_Ionization_Penalty_Neutral>
  0.0003

> <r_epik_State_Penalty>
  0.0321

> <r_epik_Charging_Adjusted_Penalty>
0.0698382821925398

> <i_epik_Tot_Q>
1

> <i_epik_Tot_abs_Q>
1

$$$$
FMM
                    3D
 Structure written by MMmdl.
 66 70  0  0  1  0            999 V2000
   22.6040   34.4870   31.1410 C   0  0  0  0  0  0
   24.0360   33.4650   31.3500 S   0  0  0  0  0  0
   25.0530   34.2040   32.0670 O   0  0  0  0  0  0
   24.5430   33.0770   30.0530 O   0  0  0  0  0  0
   23.5870   31.9800   32.2910 C   0  0  0  0  0  0
   22.0610   31.8360   32.3240 C   0  0  0  0  0  0
   21.5690   32.1840   33.6650 N   0  0  0  0  0  0
   20.9140   31.0190   34.2650 C   0  0  0  0  0  0
   19.4160   31.2080   34.2230 C   0  0  0  0  0  0
   18.6740   30.9770   33.1210 C   0  0  0  0  0  0
   17.4450   31.2370   33.4210 C   0  0  0  0  0  0
   17.4090   31.6450   34.7310 C   0  0  0  0  0  0
   18.6550   31.6530   35.3630 O   0  0  0  0  0  0
   16.1760   32.0580   35.4070 C   0  0  0  0  0  0
   14.9580   31.9860   34.7350 C   0  0  0  0  0  0
   13.8070   32.4020   35.3590 C   0  0  0  0  0  0
   13.8490   32.8900   36.6640 C   0  0  0  0  0  0
   12.6830   33.3050   37.2760 N   0  0  0  0  0  0
   12.7080   33.7900   38.5680 C   0  0  0  0  0  0
   13.8990   33.8630   39.2600 N   0  0  0  0  0  0
   15.0770   33.4520   38.6680 C   0  0  0  0  0  0
   16.2820   33.5270   39.3660 N   0  0  0  0  0  0
   16.3320   33.8430   40.7350 C   0  0  0  0  0  0
   17.1180   34.9090   41.1780 C   0  0  0  0  0  0
   17.1640   35.2150   42.5350 C   0  0  0  0  0  0
   16.4280   34.4570   43.4380 C   0  0  0  0  0  0
   16.4460   34.7470   44.8280 O   0  0  0  0  0  0
   17.0650   36.0020   45.1430 C   0  0  0  0  0  0
   16.0850   37.1810   44.9840 C   0  0  0  0  0  0
   16.5190   38.4620   45.2460 C   0  0  0  0  0  0
   15.6530   39.5270   45.1020 C   0  0  0  0  0  0
   14.3540   39.3120   44.6930 C   0  0  0  0  0  0
   13.9160   38.0360   44.4290 C   0  0  0  0  0  0
   12.6790   37.8370   44.0350 F   0  0  0  0  0  0
   14.7720   36.9660   44.5730 C   0  0  0  0  0  0
   15.6650   33.4150   42.9990 C   0  0  0  0  0  0
   14.7840   32.5140   44.1280 Cl  0  0  0  0  0  0
   15.6070   33.0980   41.6600 C   0  0  0  0  0  0
   15.0530   32.9590   37.3490 C   0  0  0  0  0  0
   16.2200   32.5450   36.7310 C   0  0  0  0  0  0
   22.8762   35.3873   30.5705 H   0  0  0  0  0  0
   22.2164   34.7812   32.1275 H   0  0  0  0  0  0
   21.8304   33.9270   30.5952 H   0  0  0  0  0  0
   24.0280   31.0942   31.8105 H   0  0  0  0  0  0
   23.9688   32.0679   33.3189 H   0  0  0  0  0  0
   21.6128   32.5116   31.5805 H   0  0  0  0  0  0
   21.7855   30.7974   32.0888 H   0  0  0  0  0  0
   22.4145   32.4940   34.2967 H   0  0  0  0  0  0
   21.1859   30.1146   33.7010 H   0  0  0  0  0  0
   21.2414   30.9119   35.3097 H   0  0  0  0  0  0
   19.0180   30.6310   32.1320 H   0  0  0  0  0  0
   16.6070   31.1330   32.7120 H   0  0  0  0  0  0
   14.9050   31.5980   33.7040 H   0  0  0  0  0  0
   12.8500   32.3440   34.8130 H   0  0  0  0  0  0
   11.7720   34.1210   39.0500 H   0  0  0  0  0  0
   17.2320   33.3361   38.8454 H   0  0  0  0  0  0
   17.7010   35.5080   40.4580 H   0  0  0  0  0  0
   17.7820   36.0560   42.8940 H   0  0  0  0  0  0
   17.4183   35.9854   46.1846 H   0  0  0  0  0  0
   17.9181   36.1695   44.4691 H   0  0  0  0  0  0
   17.5590   38.6350   45.5710 H   0  0  0  0  0  0
   16.0000   40.5520   45.3140 H   0  0  0  0  0  0
   13.6630   40.1640   44.5770 H   0  0  0  0  0  0
   14.4090   35.9460   44.3610 H   0  0  0  0  0  0
   14.9830   32.2510   41.3300 H   0  0  0  0  0  0
   17.1720   32.6020   37.2860 H   0  0  0  0  0  0
  1  2  1  0  0  0
  1 41  1  0  0  0
  1 42  1  0  0  0
  1 43  1  0  0  0
  2  3  2  0  0  0
  2  4  2  0  0  0
  2  5  1  0  0  0
  5  6  1  0  0  0
  5 44  1  0  0  0
  5 45  1  0  0  0
  6  7  1  0  0  0
  6 46  1  0  0  0
  6 47  1  0  0  0
  7  8  1  0  0  0
  7 48  1  0  0  0
  8  9  1  0  0  0
  8 49  1  0  0  0
  8 50  1  0  0  0
  9 10  2  0  0  0
  9 13  1  0  0  0
 10 11  1  0  0  0
 10 51  1  0  0  0
 11 12  2  0  0  0
 11 52  1  0  0  0
 12 13  1  0  0  0
 12 14  1  0  0  0
 14 15  2  0  0  0
 14 40  1  0  0  0
 15 16  1  0  0  0
 15 53  1  0  0  0
 16 17  2  0  0  0
 16 54  1  0  0  0
 17 18  1  0  0  0
 17 39  1  0  0  0
 18 19  2  0  0  0
 19 20  1  0  0  0
 19 55  1  0  0  0
 20 21  2  0  0  0
 21 22  1  0  0  0
 21 39  1  0  0  0
 22 23  1  0  0  0
 22 56  1  0  0  0
 23 24  2  0  0  0
 23 38  1  0  0  0
 24 25  1  0  0  0
 24 57  1  0  0  0
 25 26  2  0  0  0
 25 58  1  0  0  0
 26 27  1  0  0  0
 26 36  1  0  0  0
 27 28  1  0  0  0
 28 29  1  0  0  0
 28 59  1  0  0  0
 28 60  1  0  0  0
 29 30  2  0  0  0
 29 35  1  0  0  0
 30 31  1  0  0  0
 30 61  1  0  0  0
 31 32  2  0  0  0
 31 62  1  0  0  0
 32 33  1  0  0  0
 32 63  1  0  0  0
 33 34  1  0  0  0
 33 35  2  0  0  0
 35 64  1  0  0  0
 36 37  1  0  0  0
 36 38  2  0  0  0
 38 65  1  0  0  0
 39 40  2  0  0  0
 40 66  1  0  0  0
M  END
> <s_m_source_file>
C:\GitHub\mcce-charges\epik_inhibitors\output-new\Lapatinib\Lapatinib-input.mol2

> <i_m_source_file_index>
1

> <r_lp_tautomer_probability>
0.999978000241998

> <r_epik_Ionization_Penalty>
  1.6500

> <r_epik_Ionization_Penalty_Charging>
  0.0000

> <r_epik_Ionization_Penalty_Neutral>
  1.6500

> <r_epik_State_Penalty>
  1.7522

> <r_epik_Charging_Adjusted_Penalty>
1.75219679943883

> <i_epik_Tot_Q>
0

> <i_epik_Tot_abs_Q>
0

$$$$
FMM
                    3D
 Structure written by MMmdl.
 68 72  0  0  1  0            999 V2000
   22.6040   34.4870   31.1410 C   0  0  0  0  0  0
   24.0360   33.4650   31.3500 S   0  0  0  0  0  0
   25.0530   34.2040   32.0670 O   0  0  0  0  0  0
   24.5430   33.0770   30.0530 O   0  0  0  0  0  0
   23.5870   31.9800   32.2910 C   0  0  0  0  0  0
   22.0610   31.8360   32.3240 C   0  0  0  0  0  0
   21.5690   32.1840   33.6650 N   0  3  0  0  0  0
   20.9140   31.0190   34.2650 C   0  0  0  0  0  0
   19.4160   31.2080   34.2230 C   0  0  0  0  0  0
   18.6740   30.9770   33.1210 C   0  0  0  0  0  0
   17.4450   31.2370   33.4210 C   0  0  0  0  0  0
   17.4090   31.6450   34.7310 C   0  0  0  0  0  0
   18.6550   31.6530   35.3630 O   0  0  0  0  0  0
   16.1760   32.0580   35.4070 C   0  0  0  0  0  0
   14.9580   31.9860   34.7350 C   0  0  0  0  0  0
   13.8070   32.4020   35.3590 C   0  0  0  0  0  0
   13.8490   32.8900   36.6640 C   0  0  0  0  0  0
   12.6830   33.3050   37.2760 N   0  3  0  0  0  0
   12.7080   33.7900   38.5680 C   0  0  0  0  0  0
   13.8990   33.8630   39.2600 N   0  0  0  0  0  0
   15.0770   33.4520   38.6680 C   0  0  0  0  0  0
   16.2820   33.5270   39.3660 N   0  0  0  0  0  0
   16.3320   33.8430   40.7350 C   0  0  0  0  0  0
   17.1180   34.9090   41.1780 C   0  0  0  0  0  0
   17.1640   35.2150   42.5350 C   0  0  0  0  0  0
   16.4280   34.4570   43.4380 C   0  0  0  0  0  0
   16.4460   34.7470   44.8280 O   0  0  0  0  0  0
   17.0650   36.0020   45.1430 C   0  0  0  0  0  0
   16.0850   37.1810   44.9840 C   0  0  0  0  0  0
   16.5190   38.4620   45.2460 C   0  0  0  0  0  0
   15.6530   39.5270   45.1020 C   0  0  0  0  0  0
   14.3540   39.3120   44.6930 C   0  0  0  0  0  0
   13.9160   38.0360   44.4290 C   0  0  0  0  0  0
   12.6790   37.8370   44.0350 F   0  0  0  0  0  0
   14.7720   36.9660   44.5730 C   0  0  0  0  0  0
   15.6650   33.4150   42.9990 C   0  0  0  0  0  0
   14.7840   32.5140   44.1280 Cl  0  0  0  0  0  0
   15.6070   33.0980   41.6600 C   0  0  0  0  0  0
   15.0530   32.9590   37.3490 C   0  0  0  0  0  0
   16.2200   32.5450   36.7310 C   0  0  0  0  0  0
   22.8762   35.3873   30.5705 H   0  0  0  0  0  0
   22.2164   34.7812   32.1275 H   0  0  0  0  0  0
   21.8304   33.9270   30.5952 H   0  0  0  0  0  0
   24.0280   31.0942   31.8105 H   0  0  0  0  0  0
   23.9688   32.0679   33.3189 H   0  0  0  0  0  0
   21.6128   32.5116   31.5805 H   0  0  0  0  0  0
   21.7855   30.7974   32.0888 H   0  0  0  0  0  0
   22.4145   32.4940   34.2967 H   0  0  0  0  0  0
   21.1859   30.1146   33.7010 H   0  0  0  0  0  0
   21.2414   30.9119   35.3097 H   0  0  0  0  0  0
   19.0180   30.6310   32.1320 H   0  0  0  0  0  0
   16.6070   31.1330   32.7120 H   0  0  0  0  0  0
   14.9050   31.5980   33.7040 H   0  0  0  0  0  0
   12.8500   32.3440   34.8130 H   0  0  0  0  0  0
   11.7720   34.1210   39.0500 H   0  0  0  0  0  0
   17.2320   33.3361   38.8454 H   0  0  0  0  0  0
   17.7010   35.5080   40.4580 H   0  0  0  0  0  0
   17.7820   36.0560   42.8940 H   0  0  0  0  0  0
   17.4183   35.9854   46.1846 H   0  0  0  0  0  0
   17.9181   36.1695   44.4691 H   0  0  0  0  0  0
   17.5590   38.6350   45.5710 H   0  0  0  0  0  0
   16.0000   40.5520   45.3140 H   0  0  0  0  0  0
   13.6630   40.1640   44.5770 H   0  0  0  0  0  0
   14.4090   35.9460   44.3610 H   0  0  0  0  0  0
   14.9830   32.2510   41.3300 H   0  0  0  0  0  0
   17.1720   32.6020   37.2860 H   0  0  0  0  0  0
   20.8469   33.0102   33.5877 H   0  0  0  0  0  0
   11.7275   33.2501   36.7337 H   0  0  0  0  0  0
  1  2  1  0  0  0
  1 41  1  0  0  0
  1 42  1  0  0  0
  1 43  1  0  0  0
  2  3  2  0  0  0
  2  4  2  0  0  0
  2  5  1  0  0  0
  5  6  1  0  0  0
  5 44  1  0  0  0
  5 45  1  0  0  0
  6  7  1  0  0  0
  6 46  1  0  0  0
  6 47  1  0  0  0
  7  8  1  0  0  0
  7 48  1  0  0  0
  7 67  1  0  0  0
  8  9  1  0  0  0
  8 49  1  0  0  0
  8 50  1  0  0  0
  9 10  2  0  0  0
  9 13  1  0  0  0
 10 11  1  0  0  0
 10 51  1  0  0  0
 11 12  2  0  0  0
 11 52  1  0  0  0
 12 13  1  0  0  0
 12 14  1  0  0  0
 14 15  2  0  0  0
 14 40  1  0  0  0
 15 16  1  0  0  0
 15 53  1  0  0  0
 16 17  2  0  0  0
 16 54  1  0  0  0
 17 18  1  0  0  0
 17 39  1  0  0  0
 18 19  2  0  0  0
 18 68  1  0  0  0
 19 20  1  0  0  0
 19 55  1  0  0  0
 20 21  2  0  0  0
 21 22  1  0  0  0
 21 39  1  0  0  0
 22 23  1  0  0  0
 22 56  1  0  0  0
 23 24  2  0  0  0
 23 38  1  0  0  0
 24 25  1  0  0  0
 24 57  1  0  0  0
 25 26  2  0  0  0
 25 58  1  0  0  0
 26 27  1  0  0  0
 26 36  1  0  0  0
 27 28  1  0  0  0
 28 29  1  0  0  0
 28 59  1  0  0  0
 28 60  1  0  0  0
 29 30  2  0  0  0
 29 35  1  0  0  0
 30 31  1  0  0  0
 30 61  1  0  0  0
 31 32  2  0  0  0
 31 62  1  0  0  0
 32 33  1  0  0  0
 32 63  1  0  0  0
 33 34  1  0  0  0
 33 35  2  0  0  0
 35 64  1  0  0  0
 36 37  1  0  0  0
 36 38  2  0  0  0
 38 65  1  0  0  0
 39 40  2  0  0  0
 40 66  1  0  0  0
M  CHG  2   7   1  18   1
M  END
> <s_m_source_file>
C:\GitHub\mcce-charges\epik_inhibitors\output-new\Lapatinib\Lapatinib-input.mol2

> <i_m_source_file_index>
1

> <r_lp_tautomer_probability>
0.993507999998615

> <r_epik_Ionization_Penalty>
  4.7744

> <r_epik_Ionization_Penalty_Charging>
  4.7743

> <r_epik_Ionization_Penalty_Neutral>
  0.0001

> <r_epik_State_Penalty>
  4.2907

> <r_epik_Charging_Adjusted_Penalty>
9.06502922486459

> <i_epik_Tot_Q>
2

> <i_epik_Tot_abs_Q>
2

$$$$
