AQ4
  CCTOOLS-0424161100

 52 54  0  0  0  0  0  0  0  0999 V2000
   29.5520   -1.9890   53.4960 C   0  0  0  0  0
   28.8410   -1.0220   53.4320 C   0  0  0  0  0
   27.9890    0.0940   53.3660 C   0  0  0  0  0
   26.6060   -0.1190   53.3230 C   0  0  0  0  0
   25.7250    0.9720   53.2580 C   0  0  0  0  0
   24.2890    0.7120   53.2150 N   0  0  0  0  0
   23.4100   -0.2170   53.9080 C   0  0  0  0  0
   22.0370   -0.3090   53.5720 C   0  0  0  0  0
   21.5010    0.4760   52.5460 C   0  0  0  0  0
   20.1430    0.3760   52.2180 C   0  0  0  0  0
   19.5890    1.2200   51.1200 O   0  0  0  0  0
   20.5500    1.3620   50.0410 C   0  0  0  0  0
   20.2350    2.6450   49.2620 C   0  0  0  0  0
   18.9900    2.4850   48.5430 O   0  0  0  0  0
   17.7120    2.6180   49.3990 C   0  0  0  0  0
   19.3010   -0.5350   52.9230 C   0  0  0  0  0
   17.8280   -0.6790   52.5970 O   0  0  0  0  0
   17.2270    0.6010   52.2200 C   0  0  0  0  0
   15.7030    0.4940   52.0660 C   0  0  0  0  0
   15.1080    0.1670   53.3350 O   0  0  0  0  0
   13.8430   -0.6950   53.2210 C   0  0  0  0  0
   19.8450   -1.3180   53.9420 C   0  0  0  0  0
   21.1990   -1.2220   54.2640 C   0  0  0  0  0
   21.7470   -2.0390   55.3190 N   0  0  0  0  0
   23.1170   -1.9340   55.6420 C   0  0  0  0  0
   23.9430   -1.0230   54.9400 N   0  0  0  0  0
   26.2340    2.2920   53.2360 C   0  0  0  0  0
   27.6250    2.5090   53.2790 C   0  0  0  0  0
   28.5080    1.4100   53.3440 C   0  0  0  0  0
   30.1790   -2.8420   53.5520 H   0  0  0  0  0
   26.2160   -1.1260   53.3400 H   0  0  0  0  0
   23.8040    1.3010   52.5680 H   0  0  0  0  0
   22.1360    1.1620   52.0050 H   0  0  0  0  0
   20.4810    0.4950   49.3680 H   0  0  0  0  0
   21.5660    1.4230   50.4570 H   0  0  0  0  0
   21.0460    2.8480   48.5480 H   0  0  0  0  0
   20.1460    3.4870   49.9640 H   0  0  0  0  0
   16.8270    2.4810   48.7610 H   0  0  0  0  0
   17.7180    1.8510   50.1880 H   0  0  0  0  0
   17.6810    3.6170   49.8590 H   0  0  0  0  0
   17.6590    0.9290   51.2630 H   0  0  0  0  0
   17.4550    1.3440   52.9990 H   0  0  0  0  0
   15.3030    1.4560   51.7120 H   0  0  0  0  0
   15.4640   -0.2940   51.3360 H   0  0  0  0  0
   13.4480   -0.9020   54.2270 H   0  0  0  0  0
   13.0850   -0.1570   52.6330 H   0  0  0  0  0
   14.0900   -1.6430   52.7210 H   0  0  0  0  0
   19.2130   -2.0040   54.4860 H   0  0  0  0  0
   23.5360   -2.5490   56.4250 H   0  0  0  0  0
   25.5570    3.1320   53.1860 H   0  0  0  0  0
   28.0160    3.5160   53.2620 H   0  0  0  0  0
   29.5750    1.5730   53.3770 H   0  0  0  0  0
  1 30  1  0  0  0
  2  1  3  0  0  0
  3  2  1  0  0  0
  4  3  2  0  0  0
  4 31  1  0  0  0
  5  4  1  0  0  0
  6  5  1  0  0  0
  6  7  1  0  0  0
  6 32  1  0  0  0
  7 26  1  0  0  0
  8  7  2  0  0  0
  8 23  1  0  0  0
  9  8  1  0  0  0
  9 33  1  0  0  0
 10  9  2  0  0  0
 10 16  1  0  0  0
 11 10  1  0  0  0
 12 11  1  0  0  0
 12 34  1  0  0  0
 12 35  1  0  0  0
 13 12  1  0  0  0
 13 36  1  0  0  0
 13 37  1  0  0  0
 14 13  1  0  0  0
 14 15  1  0  0  0
 15 38  1  0  0  0
 15 39  1  0  0  0
 15 40  1  0  0  0
 16 22  2  0  0  0
 17 16  1  0  0  0
 18 17  1  0  0  0
 18 41  1  0  0  0
 18 42  1  0  0  0
 19 18  1  0  0  0
 19 20  1  0  0  0
 19 43  1  0  0  0
 19 44  1  0  0  0
 21 20  1  0  0  0
 21 45  1  0  0  0
 21 46  1  0  0  0
 21 47  1  0  0  0
 22 23  1  0  0  0
 22 48  1  0  0  0
 23 24  2  0  0  0
 24 25  1  0  0  0
 25 49  1  0  0  0
 26 25  2  0  0  0
 27  5  2  0  0  0
 27 28  1  0  0  0
 27 50  1  0  0  0
 28 29  2  0  0  0
 28 51  1  0  0  0
 29  3  1  0  0  0
 29 52  1  0  0  0
M  END
$$$$
