@<TRIPOS>MOLECULE
~{N}-(3-ethynylphenyl)-6,7-bis(2-methoxyethoxy)quinazolin-4-amine
52   54    1
SMALL
USER_CHARGES


@<TRIPOS>ATOM
      1 C1         -2.3416   -4.0766   -1.3437 C.3       1 ERL         0.1164 
      2 O1         -1.1892   -3.4715   -0.7729 O.3       1 ERL        -0.4214 
      3 C2         -0.0001   -4.1567   -1.1469 C.3       1 ERL         0.1210 
      4 C3          1.1902   -3.4664   -0.5093 C.3       1 ERL         0.1281 
      5 O2          1.2441   -2.1193   -0.9642 O.3       1 ERL        -0.3275 
      6 C4          1.7781   -1.2046   -0.1090 C.ar      1 ERL         0.0933 
      7 C5          3.0913   -1.3524    0.3263 C.ar      1 ERL        -0.1286 
      8 C6          3.6493   -0.4117    1.2094 C.ar      1 ERL        -0.2871 
      9 C7          2.8996    0.6850    1.6650 C.ar      1 ERL         0.4425 
     10 C8          1.5879    0.8085    1.2132 C.ar      1 ERL        -0.2158 
     11 C9          1.0259   -0.1228    0.3350 C.ar      1 ERL         0.1317 
     12 O3         -0.2619    0.0418   -0.0784 O.3       1 ERL        -0.3278 
     13 C10        -0.5678    1.2442   -0.7817 C.3       1 ERL         0.1269 
     14 C11        -1.6967    0.9703   -1.7548 C.3       1 ERL         0.1235 
     15 O4         -1.2864   -0.0370   -2.6717 O.3       1 ERL        -0.4243 
     16 C12        -2.3103   -0.3345   -3.6106 C.3       1 ERL         0.1194 
     17 N1          3.4231    1.5906    2.5098 N.ar      1 ERL        -0.7096 
     18 C13         4.7000    1.3925    2.8954 C.ar      1 ERL         0.6681 
     19 N2          5.5107    0.3871    2.5281 N.ar      1 ERL        -0.7556 
     20 C14         4.9553   -0.5013    1.6825 C.ar      1 ERL         0.7112 
     21 N3          5.7729   -1.5814    1.2663 N.pl3     1 ERL        -0.7614 
     22 C15         6.8289   -2.2649    1.8896 C.ar      1 ERL         0.1636 
     23 C16         7.8456   -2.8286    1.1187 C.ar      1 ERL        -0.1722 
     24 C17         8.8951   -3.5078    1.7375 C.ar      1 ERL        -0.1077 
     25 C18         8.9278   -3.6235    3.1272 C.ar      1 ERL        -0.1299 
     26 C19         7.9110   -3.0599    3.8980 C.ar      1 ERL         0.0474 
     27 C20         6.8615   -2.3806    3.2792 C.ar      1 ERL        -0.1170 
     28 C21         7.9450   -3.1786    5.3216 C.1       1 ERL        -0.1265 
     29 C22         7.9737   -3.2783    6.5213 C.1       1 ERL        -0.1312 
     30 H1         -3.2390   -3.5213   -1.0334 H         1 ERL         0.0360 
     31 H2         -2.4175   -5.1184   -0.9989 H         1 ERL         0.0360 
     32 H3         -2.2601   -4.0583   -2.4405 H         1 ERL         0.0360 
     33 H4         -0.0532   -5.1993   -0.8002 H         1 ERL         0.0434 
     34 H5          0.1042   -4.1393   -2.2418 H         1 ERL         0.0434 
     35 H6          1.0812   -3.4838    0.5851 H         1 ERL         0.0518 
     36 H7          2.1142   -3.9909   -0.7941 H         1 ERL         0.0518 
     37 H8          3.6649   -2.2044   -0.0313 H         1 ERL         0.1434 
     38 H9          0.9831    1.6491    1.5500 H         1 ERL         0.1674 
     39 H10        -0.8748    2.0202   -0.0650 H         1 ERL         0.0545 
     40 H11         0.3224    1.5842   -1.3312 H         1 ERL         0.0545 
     41 H12        -2.5832    0.6278   -1.2009 H         1 ERL         0.0436 
     42 H13        -1.9404    1.8925   -2.3027 H         1 ERL         0.0436 
     43 H14        -1.9588   -1.1150   -4.3014 H         1 ERL         0.0352 
     44 H15        -2.5610    0.5730   -4.1795 H         1 ERL         0.0352 
     45 H16        -3.2038   -0.6918   -3.0777 H         1 ERL         0.0352 
     46 H17         5.1158    2.1255    3.5760 H         1 ERL         0.0559 
     47 H18         5.6218   -2.0359    0.2760 H         1 ERL         0.4482 
     48 H19         7.8301   -2.7444    0.0350 H         1 ERL         0.1327 
     49 H20         9.6867   -3.9467    1.1372 H         1 ERL         0.1359 
     50 H21         9.7525   -4.1561    3.5948 H         1 ERL         0.1419 
     51 H22         6.0661   -1.9394    3.8769 H         1 ERL         0.1572 
     52 H23         7.9999   -3.3694    7.6172 H         1 ERL         0.1678 
@<TRIPOS>BOND
     1    1    2 1    
     2    1   30 1    
     3    1   31 1    
     4    1   32 1    
     5    2    3 1    
     6    3    4 1    
     7    3   33 1    
     8    3   34 1    
     9    4    5 1    
    10    4   35 1    
    11    4   36 1    
    12    5    6 1    
    13    6   11 ar   
    14    6    7 ar   
    15    7    8 ar   
    16    7   37 1    
    17    8   20 ar   
    18    8    9 ar   
    19    9   10 ar   
    20    9   17 ar   
    21   10   11 ar   
    22   10   38 1    
    23   11   12 1    
    24   12   13 1    
    25   13   14 1    
    26   13   39 1    
    27   13   40 1    
    28   14   15 1    
    29   14   41 1    
    30   14   42 1    
    31   15   16 1    
    32   16   43 1    
    33   16   44 1    
    34   16   45 1    
    35   17   18 ar   
    36   18   19 ar   
    37   18   46 1    
    38   19   20 ar   
    39   20   21 1    
    40   21   22 1    
    41   21   47 1    
    42   22   27 ar   
    43   22   23 ar   
    44   23   24 ar   
    45   23   48 1    
    46   24   25 ar   
    47   24   49 1    
    48   25   26 ar   
    49   25   50 1    
    50   26   27 ar   
    51   26   28 1    
    52   27   51 1    
    53   28   29 3    
    54   29   52 1    
@<TRIPOS>SUBSTRUCTURE
     1 ERL         1 GROUP             0       ****    0 ROOT    
@<TRIPOS>MOLECULE
~{N}-(3-ethynylphenyl)-6,7-bis(2-methoxyethoxy)quinazolin-4-amine
53   55    1
SMALL
USER_CHARGES


@<TRIPOS>ATOM
      1 C1         -2.3416   -4.0766   -1.3437 C.3       1 ERL         0.1164 
      2 O1         -1.1892   -3.4715   -0.7729 O.3       1 ERL        -0.4214 
      3 C2         -0.0001   -4.1567   -1.1469 C.3       1 ERL         0.1210 
      4 C3          1.1902   -3.4664   -0.5093 C.3       1 ERL         0.1281 
      5 O2          1.2441   -2.1193   -0.9642 O.3       1 ERL        -0.3275 
      6 C4          1.7781   -1.2046   -0.1090 C.ar      1 ERL         0.0933 
      7 C5          3.0913   -1.3524    0.3263 C.ar      1 ERL        -0.1286 
      8 C6          3.6493   -0.4117    1.2094 C.ar      1 ERL        -0.2871 
      9 C7          2.8996    0.6850    1.6650 C.ar      1 ERL         0.4425 
     10 C8          1.5879    0.8085    1.2132 C.ar      1 ERL        -0.2158 
     11 C9          1.0259   -0.1228    0.3350 C.ar      1 ERL         0.1317 
     12 O3         -0.2619    0.0418   -0.0784 O.3       1 ERL        -0.3278 
     13 C10        -0.5678    1.2442   -0.7817 C.3       1 ERL         0.1269 
     14 C11        -1.6967    0.9703   -1.7548 C.3       1 ERL         0.1235 
     15 O4         -1.2864   -0.0370   -2.6717 O.3       1 ERL        -0.4243 
     16 C12        -2.3103   -0.3345   -3.6106 C.3       1 ERL         0.1194 
     17 N1          3.4231    1.5906    2.5098 N.pl3     1 ERL        -0.7096 
     18 C13         4.7000    1.3925    2.8954 C.ar      1 ERL         0.6681 
     19 N2          5.5107    0.3871    2.5281 N.ar      1 ERL        -0.7556 
     20 C14         4.9553   -0.5013    1.6825 C.ar      1 ERL         0.7112 
     21 N3          5.7729   -1.5814    1.2663 N.pl3     1 ERL        -0.7614 
     22 C15         6.8289   -2.2649    1.8896 C.ar      1 ERL         0.1636 
     23 C16         7.8456   -2.8286    1.1187 C.ar      1 ERL        -0.1722 
     24 C17         8.8951   -3.5078    1.7375 C.ar      1 ERL        -0.1077 
     25 C18         8.9278   -3.6235    3.1272 C.ar      1 ERL        -0.1299 
     26 C19         7.9110   -3.0599    3.8980 C.ar      1 ERL         0.0474 
     27 C20         6.8615   -2.3806    3.2792 C.ar      1 ERL        -0.1170 
     28 C21         7.9450   -3.1786    5.3216 C.1       1 ERL        -0.1265 
     29 C22         7.9737   -3.2783    6.5213 C.1       1 ERL        -0.1312 
     30 H1         -3.2390   -3.5213   -1.0334 H         1 ERL         0.0360 
     31 H2         -2.4175   -5.1184   -0.9989 H         1 ERL         0.0360 
     32 H3         -2.2601   -4.0583   -2.4405 H         1 ERL         0.0360 
     33 H4         -0.0532   -5.1993   -0.8002 H         1 ERL         0.0434 
     34 H5          0.1042   -4.1393   -2.2418 H         1 ERL         0.0434 
     35 H6          1.0812   -3.4838    0.5851 H         1 ERL         0.0518 
     36 H7          2.1142   -3.9909   -0.7941 H         1 ERL         0.0518 
     37 H8          3.6649   -2.2044   -0.0313 H         1 ERL         0.1434 
     38 H9          0.9831    1.6491    1.5500 H         1 ERL         0.1674 
     39 H10        -0.8748    2.0202   -0.0650 H         1 ERL         0.0545 
     40 H11         0.3224    1.5842   -1.3312 H         1 ERL         0.0545 
     41 H12        -2.5832    0.6278   -1.2009 H         1 ERL         0.0436 
     42 H13        -1.9404    1.8925   -2.3027 H         1 ERL         0.0436 
     43 H14        -1.9588   -1.1150   -4.3014 H         1 ERL         0.0352 
     44 H15        -2.5610    0.5730   -4.1795 H         1 ERL         0.0352 
     45 H16        -3.2038   -0.6918   -3.0777 H         1 ERL         0.0352 
     46 H17         5.1158    2.1255    3.5760 H         1 ERL         0.0559 
     47 H18         5.6218   -2.0359    0.2760 H         1 ERL         0.4482 
     48 H19         7.8301   -2.7444    0.0350 H         1 ERL         0.1327 
     49 H20         9.6867   -3.9467    1.1372 H         1 ERL         0.1359 
     50 H21         9.7525   -4.1561    3.5948 H         1 ERL         0.1419 
     51 H22         6.0661   -1.9394    3.8769 H         1 ERL         0.1572 
     52 H23         7.9999   -3.3694    7.6172 H         1 ERL         0.1678 
     53 H53         2.8141    2.4405    2.8515 H         1 ERL         0.0000 
@<TRIPOS>BOND
     1    1    2 1    
     2    1   30 1    
     3    1   31 1    
     4    1   32 1    
     5    2    3 1    
     6    3    4 1    
     7    3   33 1    
     8    3   34 1    
     9    4    5 1    
    10    4   35 1    
    11    4   36 1    
    12    5    6 1    
    13    6   11 ar   
    14    6    7 ar   
    15    7    8 ar   
    16    7   37 1    
    17    8   20 ar   
    18    8    9 ar   
    19    9   10 ar   
    20    9   17 ar   
    21   10   11 ar   
    22   10   38 1    
    23   11   12 1    
    24   12   13 1    
    25   13   14 1    
    26   13   39 1    
    27   13   40 1    
    28   14   15 1    
    29   14   41 1    
    30   14   42 1    
    31   15   16 1    
    32   16   43 1    
    33   16   44 1    
    34   16   45 1    
    35   17   18 ar   
    36   17   53 1    
    37   18   19 ar   
    38   18   46 1    
    39   19   20 ar   
    40   20   21 1    
    41   21   22 1    
    42   21   47 1    
    43   22   27 ar   
    44   22   23 ar   
    45   23   24 ar   
    46   23   48 1    
    47   24   25 ar   
    48   24   49 1    
    49   25   26 ar   
    50   25   50 1    
    51   26   27 ar   
    52   26   28 1    
    53   27   51 1    
    54   28   29 3    
    55   29   52 1    
@<TRIPOS>SUBSTRUCTURE
     1 ERL         1 GROUP             0       ****    0 ROOT    
