276
                    3D
 Structure written by MMmdl.
 47 50  0  0  1  0            999 V2000
   67.0220   90.6190   42.4480 C   0  0  0  0  0  0
   66.8250   90.0640   41.1750 C   0  0  0  0  0  0
   67.8350   89.9260   40.2650 N   0  0  0  0  0  0
   69.0930   90.3430   40.6020 C   0  0  0  0  0  0
   69.3660   90.9030   41.8450 C   0  0  0  0  0  0
   68.3340   91.0500   42.7830 C   0  0  0  0  0  0
   70.2120   90.2100   39.6450 C   0  0  0  0  0  0
   71.3040   90.7980   39.7750 O   0  0  0  0  0  0
   69.9370   89.3780   38.6010 N   0  0  0  0  0  0
   70.9310   89.1270   37.5570 C   0  0  0  0  0  0
   68.7650   91.6190   43.9810 O   0  0  0  0  0  0
   67.9410   92.1250   44.9770 C   0  0  0  0  0  0
   67.2230   93.3370   44.8210 C   0  0  0  0  0  0
   66.4540   93.8150   45.8690 C   0  0  0  0  0  0
   66.3840   93.0840   47.1060 C   0  0  0  0  0  0
   67.0790   91.9000   47.2570 C   0  0  0  0  0  0
   67.8620   91.4110   46.1940 C   0  0  0  0  0  0
   65.6710   94.9350   46.0210 N   0  0  0  0  0  0
   65.1660   94.8930   47.2630 C   0  0  0  0  0  0
   65.5680   93.8040   47.9380 N   0  0  0  0  0  0
   64.2820   95.9030   47.8620 N   0  0  0  0  0  0
   63.2770   96.6090   47.2720 C   0  0  0  0  0  0
   62.8180   97.7120   47.9910 C   0  0  0  0  0  0
   61.7760   98.5450   47.5260 C   0  0  0  0  0  0
   61.1880   98.2100   46.2550 C   0  0  0  0  0  0
   61.6440   97.0950   45.5090 C   0  0  0  0  0  0
   62.6890   96.2950   46.0200 C   0  0  0  0  0  0
   61.3450   99.7240   48.3940 C   0  0  0  0  0  0
   59.8900   99.1210   45.5280 Cl  0  0  0  0  0  0
   60.1520   99.4120   48.8550 F   0  0  0  0  0  0
   61.2950  100.8240   47.6670 F   0  0  0  0  0  0
   62.2040   99.9190   49.4030 F   0  0  0  0  0  0
   66.2060   90.7150   43.1490 H   0  0  0  0  0  0
   65.8340   89.7320   40.9030 H   0  0  0  0  0  0
   70.3690   91.2230   42.0870 H   0  0  0  0  0  0
   68.9513   88.8923   38.5502 H   0  0  0  0  0  0
   70.5138   88.4327   36.8128 H   0  0  0  0  0  0
   71.8317   88.6842   38.0072 H   0  0  0  0  0  0
   71.1947   90.0755   37.0662 H   0  0  0  0  0  0
   67.2750   93.8840   43.8910 H   0  0  0  0  0  0
   67.0220   91.3520   48.1860 H   0  0  0  0  0  0
   68.4050   90.4850   46.3090 H   0  0  0  0  0  0
   65.5675   95.6504   45.1919 H   0  0  0  0  0  0
   64.3931   96.1714   48.9229 H   0  0  0  0  0  0
   63.2780   97.9390   48.9420 H   0  0  0  0  0  0
   61.1950   96.8590   44.5560 H   0  0  0  0  0  0
   63.0410   95.4430   45.4570 H   0  0  0  0  0  0
  1  6  2  0  0  0
  1 33  1  0  0  0
  1  2  1  0  0  0
  2 34  1  0  0  0
  2  3  2  0  0  0
  3  4  1  0  0  0
  4  5  2  0  0  0
  4  7  1  0  0  0
  5  6  1  0  0  0
  5 35  1  0  0  0
  6 11  1  0  0  0
  7  8  2  0  0  0
  7  9  1  0  0  0
  9 36  1  0  0  0
  9 10  1  0  0  0
 10 37  1  0  0  0
 10 38  1  0  0  0
 10 39  1  0  0  0
 11 12  1  0  0  0
 12 17  1  0  0  0
 12 13  2  0  0  0
 13 14  1  0  0  0
 13 40  1  0  0  0
 14 18  1  0  0  0
 14 15  2  0  0  0
 15 16  1  0  0  0
 15 20  1  0  0  0
 16 41  1  0  0  0
 16 17  2  0  0  0
 17 42  1  0  0  0
 18 19  1  0  0  0
 18 43  1  0  0  0
 19 21  1  0  0  0
 19 20  2  0  0  0
 21 44  1  0  0  0
 21 22  1  0  0  0
 22 23  2  0  0  0
 22 27  1  0  0  0
 23 45  1  0  0  0
 23 24  1  0  0  0
 24 28  1  0  0  0
 24 25  2  0  0  0
 25 26  1  0  0  0
 25 29  1  0  0  0
 26 27  2  0  0  0
 26 46  1  0  0  0
 27 47  1  0  0  0
 28 30  1  0  0  0
 28 32  1  0  0  0
 28 31  1  0  0  0
M  END
> <s_m_source_file>
C:\GitHub\mcce-charges\epik_inhibitors\output-new\Regorafenib\Regorafenib-input.mol2

> <i_m_source_file_index>
1

> <r_epik_Ionization_Penalty>
  0.0299

> <r_epik_Ionization_Penalty_Charging>
  0.0000

> <r_epik_Ionization_Penalty_Neutral>
  0.0299

> <r_epik_State_Penalty>
  0.3044

> <r_epik_Charging_Adjusted_Penalty>
0.304351598021449

> <i_epik_Tot_Q>
0

> <i_epik_Tot_abs_Q>
0

$$$$
276
                    3D
 Structure written by MMmdl.
 47 50  0  0  1  0            999 V2000
   67.0220   90.6190   42.4480 C   0  0  0  0  0  0
   66.8250   90.0640   41.1750 C   0  0  0  0  0  0
   67.8350   89.9260   40.2650 N   0  0  0  0  0  0
   69.0930   90.3430   40.6020 C   0  0  0  0  0  0
   69.3660   90.9030   41.8450 C   0  0  0  0  0  0
   68.3340   91.0500   42.7830 C   0  0  0  0  0  0
   70.2120   90.2100   39.6450 C   0  0  0  0  0  0
   71.3040   90.7980   39.7750 O   0  0  0  0  0  0
   69.9370   89.3780   38.6010 N   0  0  0  0  0  0
   70.9310   89.1270   37.5570 C   0  0  0  0  0  0
   68.7650   91.6190   43.9810 O   0  0  0  0  0  0
   67.9410   92.1250   44.9770 C   0  0  0  0  0  0
   67.2230   93.3370   44.8210 C   0  0  0  0  0  0
   66.4540   93.8150   45.8690 C   0  0  0  0  0  0
   66.3840   93.0840   47.1060 C   0  0  0  0  0  0
   67.0790   91.9000   47.2570 C   0  0  0  0  0  0
   67.8620   91.4110   46.1940 C   0  0  0  0  0  0
   65.6710   94.9350   46.0210 N   0  0  0  0  0  0
   65.1660   94.8930   47.2630 C   0  0  0  0  0  0
   65.5680   93.8040   47.9380 N   0  0  0  0  0  0
   64.2820   95.9030   47.8620 N   0  0  0  0  0  0
   63.2770   96.6090   47.2720 C   0  0  0  0  0  0
   62.8180   97.7120   47.9910 C   0  0  0  0  0  0
   61.7760   98.5450   47.5260 C   0  0  0  0  0  0
   61.1880   98.2100   46.2550 C   0  0  0  0  0  0
   61.6440   97.0950   45.5090 C   0  0  0  0  0  0
   62.6890   96.2950   46.0200 C   0  0  0  0  0  0
   61.3450   99.7240   48.3940 C   0  0  0  0  0  0
   59.8900   99.1210   45.5280 Cl  0  0  0  0  0  0
   60.1520   99.4120   48.8550 F   0  0  0  0  0  0
   61.2950  100.8240   47.6670 F   0  0  0  0  0  0
   62.2040   99.9190   49.4030 F   0  0  0  0  0  0
   66.2060   90.7150   43.1490 H   0  0  0  0  0  0
   65.8340   89.7320   40.9030 H   0  0  0  0  0  0
   70.3690   91.2230   42.0870 H   0  0  0  0  0  0
   68.9513   88.8923   38.5502 H   0  0  0  0  0  0
   70.5138   88.4327   36.8128 H   0  0  0  0  0  0
   71.8317   88.6842   38.0072 H   0  0  0  0  0  0
   71.1947   90.0755   37.0662 H   0  0  0  0  0  0
   67.2750   93.8840   43.8910 H   0  0  0  0  0  0
   67.0220   91.3520   48.1860 H   0  0  0  0  0  0
   68.4050   90.4850   46.3090 H   0  0  0  0  0  0
   64.3931   96.1714   48.9229 H   0  0  0  0  0  0
   63.2780   97.9390   48.9420 H   0  0  0  0  0  0
   61.1950   96.8590   44.5560 H   0  0  0  0  0  0
   63.0410   95.4430   45.4570 H   0  0  0  0  0  0
   65.3613   93.4405   48.9554 H   0  0  0  0  0  0
  1  6  2  0  0  0
  1 33  1  0  0  0
  1  2  1  0  0  0
  2 34  1  0  0  0
  2  3  2  0  0  0
  3  4  1  0  0  0
  4  5  2  0  0  0
  4  7  1  0  0  0
  5  6  1  0  0  0
  5 35  1  0  0  0
  6 11  1  0  0  0
  7  8  2  0  0  0
  7  9  1  0  0  0
  9 36  1  0  0  0
  9 10  1  0  0  0
 10 37  1  0  0  0
 10 38  1  0  0  0
 10 39  1  0  0  0
 11 12  1  0  0  0
 12 17  1  0  0  0
 12 13  2  0  0  0
 13 14  1  0  0  0
 13 40  1  0  0  0
 14 18  1  0  0  0
 14 15  2  0  0  0
 15 16  1  0  0  0
 15 20  1  0  0  0
 16 41  1  0  0  0
 16 17  2  0  0  0
 17 42  1  0  0  0
 18 19  2  0  0  0
 19 21  1  0  0  0
 19 20  1  0  0  0
 20 47  1  0  0  0
 21 43  1  0  0  0
 21 22  1  0  0  0
 22 23  2  0  0  0
 22 27  1  0  0  0
 23 44  1  0  0  0
 23 24  1  0  0  0
 24 28  1  0  0  0
 24 25  2  0  0  0
 25 26  1  0  0  0
 25 29  1  0  0  0
 26 27  2  0  0  0
 26 45  1  0  0  0
 27 46  1  0  0  0
 28 30  1  0  0  0
 28 32  1  0  0  0
 28 31  1  0  0  0
M  END
> <s_m_source_file>
C:\GitHub\mcce-charges\epik_inhibitors\output-new\Regorafenib\Regorafenib-input.mol2

> <i_m_source_file_index>
1

> <r_epik_Ionization_Penalty>
  0.0433

> <r_epik_Ionization_Penalty_Charging>
  0.0000

> <r_epik_Ionization_Penalty_Neutral>
  0.0433

> <r_epik_State_Penalty>
  0.5818

> <r_epik_Charging_Adjusted_Penalty>
0.581801626012453

> <i_epik_Tot_Q>
0

> <i_epik_Tot_abs_Q>
0

$$$$
276
                    3D
 Structure written by MMmdl.
 48 51  0  0  1  0            999 V2000
   67.0220   90.6190   42.4480 C   0  0  0  0  0  0
   66.8250   90.0640   41.1750 C   0  0  0  0  0  0
   67.8350   89.9260   40.2650 N   0  0  0  0  0  0
   69.0930   90.3430   40.6020 C   0  0  0  0  0  0
   69.3660   90.9030   41.8450 C   0  0  0  0  0  0
   68.3340   91.0500   42.7830 C   0  0  0  0  0  0
   70.2120   90.2100   39.6450 C   0  0  0  0  0  0
   71.3040   90.7980   39.7750 O   0  0  0  0  0  0
   69.9370   89.3780   38.6010 N   0  0  0  0  0  0
   70.9310   89.1270   37.5570 C   0  0  0  0  0  0
   68.7650   91.6190   43.9810 O   0  0  0  0  0  0
   67.9410   92.1250   44.9770 C   0  0  0  0  0  0
   67.2230   93.3370   44.8210 C   0  0  0  0  0  0
   66.4540   93.8150   45.8690 C   0  0  0  0  0  0
   66.3840   93.0840   47.1060 C   0  0  0  0  0  0
   67.0790   91.9000   47.2570 C   0  0  0  0  0  0
   67.8620   91.4110   46.1940 C   0  0  0  0  0  0
   65.6710   94.9350   46.0210 N   0  0  0  0  0  0
   65.1660   94.8930   47.2630 C   0  0  0  0  0  0
   65.5680   93.8040   47.9380 N   0  3  0  0  0  0
   64.2820   95.9030   47.8620 N   0  0  0  0  0  0
   63.2770   96.6090   47.2720 C   0  0  0  0  0  0
   62.8180   97.7120   47.9910 C   0  0  0  0  0  0
   61.7760   98.5450   47.5260 C   0  0  0  0  0  0
   61.1880   98.2100   46.2550 C   0  0  0  0  0  0
   61.6440   97.0950   45.5090 C   0  0  0  0  0  0
   62.6890   96.2950   46.0200 C   0  0  0  0  0  0
   61.3450   99.7240   48.3940 C   0  0  0  0  0  0
   59.8900   99.1210   45.5280 Cl  0  0  0  0  0  0
   60.1520   99.4120   48.8550 F   0  0  0  0  0  0
   61.2950  100.8240   47.6670 F   0  0  0  0  0  0
   62.2040   99.9190   49.4030 F   0  0  0  0  0  0
   66.2060   90.7150   43.1490 H   0  0  0  0  0  0
   65.8340   89.7320   40.9030 H   0  0  0  0  0  0
   70.3690   91.2230   42.0870 H   0  0  0  0  0  0
   68.9513   88.8923   38.5502 H   0  0  0  0  0  0
   70.5138   88.4327   36.8128 H   0  0  0  0  0  0
   71.8317   88.6842   38.0072 H   0  0  0  0  0  0
   71.1947   90.0755   37.0662 H   0  0  0  0  0  0
   67.2750   93.8840   43.8910 H   0  0  0  0  0  0
   67.0220   91.3520   48.1860 H   0  0  0  0  0  0
   68.4050   90.4850   46.3090 H   0  0  0  0  0  0
   65.5675   95.6504   45.1919 H   0  0  0  0  0  0
   64.3931   96.1714   48.9229 H   0  0  0  0  0  0
   63.2780   97.9390   48.9420 H   0  0  0  0  0  0
   61.1950   96.8590   44.5560 H   0  0  0  0  0  0
   63.0410   95.4430   45.4570 H   0  0  0  0  0  0
   65.3613   93.4405   48.9554 H   0  0  0  0  0  0
  1  6  2  0  0  0
  1 33  1  0  0  0
  1  2  1  0  0  0
  2 34  1  0  0  0
  2  3  2  0  0  0
  3  4  1  0  0  0
  4  5  2  0  0  0
  4  7  1  0  0  0
  5  6  1  0  0  0
  5 35  1  0  0  0
  6 11  1  0  0  0
  7  8  2  0  0  0
  7  9  1  0  0  0
  9 36  1  0  0  0
  9 10  1  0  0  0
 10 37  1  0  0  0
 10 38  1  0  0  0
 10 39  1  0  0  0
 11 12  1  0  0  0
 12 17  1  0  0  0
 12 13  2  0  0  0
 13 14  1  0  0  0
 13 40  1  0  0  0
 14 18  1  0  0  0
 14 15  2  0  0  0
 15 16  1  0  0  0
 15 20  1  0  0  0
 16 41  1  0  0  0
 16 17  2  0  0  0
 17 42  1  0  0  0
 18 19  1  0  0  0
 18 43  1  0  0  0
 19 21  1  0  0  0
 19 20  2  0  0  0
 20 48  1  0  0  0
 21 44  1  0  0  0
 21 22  1  0  0  0
 22 23  2  0  0  0
 22 27  1  0  0  0
 23 45  1  0  0  0
 23 24  1  0  0  0
 24 28  1  0  0  0
 24 25  2  0  0  0
 25 26  1  0  0  0
 25 29  1  0  0  0
 26 27  2  0  0  0
 26 46  1  0  0  0
 27 47  1  0  0  0
 28 30  1  0  0  0
 28 32  1  0  0  0
 28 31  1  0  0  0
M  CHG  1  20   1
M  END
> <s_m_source_file>
C:\GitHub\mcce-charges\epik_inhibitors\output-new\Regorafenib\Regorafenib-input.mol2

> <i_m_source_file_index>
1

> <r_epik_Ionization_Penalty>
  3.5853

> <r_epik_Ionization_Penalty_Charging>
  3.5790

> <r_epik_Ionization_Penalty_Neutral>
  0.0062

> <r_epik_State_Penalty>
  2.3572

> <r_epik_Charging_Adjusted_Penalty>
5.93628025831752

> <i_epik_Tot_Q>
1

> <i_epik_Tot_abs_Q>
1

$$$$
276
                    3D
 Structure written by MMmdl.
 48 51  0  0  1  0            999 V2000
   67.0220   90.6190   42.4480 C   0  0  0  0  0  0
   66.8250   90.0640   41.1750 C   0  0  0  0  0  0
   67.8350   89.9260   40.2650 N   0  3  0  0  0  0
   69.0930   90.3430   40.6020 C   0  0  0  0  0  0
   69.3660   90.9030   41.8450 C   0  0  0  0  0  0
   68.3340   91.0500   42.7830 C   0  0  0  0  0  0
   70.2120   90.2100   39.6450 C   0  0  0  0  0  0
   71.3040   90.7980   39.7750 O   0  0  0  0  0  0
   69.9370   89.3780   38.6010 N   0  0  0  0  0  0
   70.9310   89.1270   37.5570 C   0  0  0  0  0  0
   68.7650   91.6190   43.9810 O   0  0  0  0  0  0
   67.9410   92.1250   44.9770 C   0  0  0  0  0  0
   67.2230   93.3370   44.8210 C   0  0  0  0  0  0
   66.4540   93.8150   45.8690 C   0  0  0  0  0  0
   66.3840   93.0840   47.1060 C   0  0  0  0  0  0
   67.0790   91.9000   47.2570 C   0  0  0  0  0  0
   67.8620   91.4110   46.1940 C   0  0  0  0  0  0
   65.6710   94.9350   46.0210 N   0  0  0  0  0  0
   65.1660   94.8930   47.2630 C   0  0  0  0  0  0
   65.5680   93.8040   47.9380 N   0  0  0  0  0  0
   64.2820   95.9030   47.8620 N   0  0  0  0  0  0
   63.2770   96.6090   47.2720 C   0  0  0  0  0  0
   62.8180   97.7120   47.9910 C   0  0  0  0  0  0
   61.7760   98.5450   47.5260 C   0  0  0  0  0  0
   61.1880   98.2100   46.2550 C   0  0  0  0  0  0
   61.6440   97.0950   45.5090 C   0  0  0  0  0  0
   62.6890   96.2950   46.0200 C   0  0  0  0  0  0
   61.3450   99.7240   48.3940 C   0  0  0  0  0  0
   59.8900   99.1210   45.5280 Cl  0  0  0  0  0  0
   60.1520   99.4120   48.8550 F   0  0  0  0  0  0
   61.2950  100.8240   47.6670 F   0  0  0  0  0  0
   62.2040   99.9190   49.4030 F   0  0  0  0  0  0
   66.2060   90.7150   43.1490 H   0  0  0  0  0  0
   65.8340   89.7320   40.9030 H   0  0  0  0  0  0
   70.3690   91.2230   42.0870 H   0  0  0  0  0  0
   68.9513   88.8923   38.5502 H   0  0  0  0  0  0
   70.5138   88.4327   36.8128 H   0  0  0  0  0  0
   71.8317   88.6842   38.0072 H   0  0  0  0  0  0
   71.1947   90.0755   37.0662 H   0  0  0  0  0  0
   67.2750   93.8840   43.8910 H   0  0  0  0  0  0
   67.0220   91.3520   48.1860 H   0  0  0  0  0  0
   68.4050   90.4850   46.3090 H   0  0  0  0  0  0
   65.5675   95.6504   45.1919 H   0  0  0  0  0  0
   64.3931   96.1714   48.9229 H   0  0  0  0  0  0
   63.2780   97.9390   48.9420 H   0  0  0  0  0  0
   61.1950   96.8590   44.5560 H   0  0  0  0  0  0
   63.0410   95.4430   45.4570 H   0  0  0  0  0  0
   67.6299   89.4849   39.2784 H   0  0  0  0  0  0
  1  6  2  0  0  0
  1 33  1  0  0  0
  1  2  1  0  0  0
  2 34  1  0  0  0
  2  3  2  0  0  0
  3  4  1  0  0  0
  3 48  1  0  0  0
  4  5  2  0  0  0
  4  7  1  0  0  0
  5  6  1  0  0  0
  5 35  1  0  0  0
  6 11  1  0  0  0
  7  8  2  0  0  0
  7  9  1  0  0  0
  9 36  1  0  0  0
  9 10  1  0  0  0
 10 37  1  0  0  0
 10 38  1  0  0  0
 10 39  1  0  0  0
 11 12  1  0  0  0
 12 17  1  0  0  0
 12 13  2  0  0  0
 13 14  1  0  0  0
 13 40  1  0  0  0
 14 18  1  0  0  0
 14 15  2  0  0  0
 15 16  1  0  0  0
 15 20  1  0  0  0
 16 41  1  0  0  0
 16 17  2  0  0  0
 17 42  1  0  0  0
 18 19  1  0  0  0
 18 43  1  0  0  0
 19 21  1  0  0  0
 19 20  2  0  0  0
 21 44  1  0  0  0
 21 22  1  0  0  0
 22 23  2  0  0  0
 22 27  1  0  0  0
 23 45  1  0  0  0
 23 24  1  0  0  0
 24 28  1  0  0  0
 24 25  2  0  0  0
 25 26  1  0  0  0
 25 29  1  0  0  0
 26 27  2  0  0  0
 26 46  1  0  0  0
 27 47  1  0  0  0
 28 30  1  0  0  0
 28 32  1  0  0  0
 28 31  1  0  0  0
M  CHG  1   3   1
M  END
> <s_m_source_file>
C:\GitHub\mcce-charges\epik_inhibitors\output-new\Regorafenib\Regorafenib-input.mol2

> <i_m_source_file_index>
1

> <r_epik_Ionization_Penalty>
  2.7553

> <r_epik_Ionization_Penalty_Charging>
  2.7087

> <r_epik_Ionization_Penalty_Neutral>
  0.0466

> <r_epik_State_Penalty>
  3.1578

> <r_epik_Charging_Adjusted_Penalty>
5.86649955011552

> <i_epik_Tot_Q>
1

> <i_epik_Tot_abs_Q>
1

$$$$
276
                    3D
 Structure written by MMmdl.
 48 51  0  0  1  0            999 V2000
   67.0220   90.6190   42.4480 C   0  0  0  0  0  0
   66.8250   90.0640   41.1750 C   0  0  0  0  0  0
   67.8350   89.9260   40.2650 N   0  3  0  0  0  0
   69.0930   90.3430   40.6020 C   0  0  0  0  0  0
   69.3660   90.9030   41.8450 C   0  0  0  0  0  0
   68.3340   91.0500   42.7830 C   0  0  0  0  0  0
   70.2120   90.2100   39.6450 C   0  0  0  0  0  0
   71.3040   90.7980   39.7750 O   0  0  0  0  0  0
   69.9370   89.3780   38.6010 N   0  0  0  0  0  0
   70.9310   89.1270   37.5570 C   0  0  0  0  0  0
   68.7650   91.6190   43.9810 O   0  0  0  0  0  0
   67.9410   92.1250   44.9770 C   0  0  0  0  0  0
   67.2230   93.3370   44.8210 C   0  0  0  0  0  0
   66.4540   93.8150   45.8690 C   0  0  0  0  0  0
   66.3840   93.0840   47.1060 C   0  0  0  0  0  0
   67.0790   91.9000   47.2570 C   0  0  0  0  0  0
   67.8620   91.4110   46.1940 C   0  0  0  0  0  0
   65.6710   94.9350   46.0210 N   0  0  0  0  0  0
   65.1660   94.8930   47.2630 C   0  0  0  0  0  0
   65.5680   93.8040   47.9380 N   0  0  0  0  0  0
   64.2820   95.9030   47.8620 N   0  0  0  0  0  0
   63.2770   96.6090   47.2720 C   0  0  0  0  0  0
   62.8180   97.7120   47.9910 C   0  0  0  0  0  0
   61.7760   98.5450   47.5260 C   0  0  0  0  0  0
   61.1880   98.2100   46.2550 C   0  0  0  0  0  0
   61.6440   97.0950   45.5090 C   0  0  0  0  0  0
   62.6890   96.2950   46.0200 C   0  0  0  0  0  0
   61.3450   99.7240   48.3940 C   0  0  0  0  0  0
   59.8900   99.1210   45.5280 Cl  0  0  0  0  0  0
   60.1520   99.4120   48.8550 F   0  0  0  0  0  0
   61.2950  100.8240   47.6670 F   0  0  0  0  0  0
   62.2040   99.9190   49.4030 F   0  0  0  0  0  0
   66.2060   90.7150   43.1490 H   0  0  0  0  0  0
   65.8340   89.7320   40.9030 H   0  0  0  0  0  0
   70.3690   91.2230   42.0870 H   0  0  0  0  0  0
   68.9513   88.8923   38.5502 H   0  0  0  0  0  0
   70.5138   88.4327   36.8128 H   0  0  0  0  0  0
   71.8317   88.6842   38.0072 H   0  0  0  0  0  0
   71.1947   90.0755   37.0662 H   0  0  0  0  0  0
   67.2750   93.8840   43.8910 H   0  0  0  0  0  0
   67.0220   91.3520   48.1860 H   0  0  0  0  0  0
   68.4050   90.4850   46.3090 H   0  0  0  0  0  0
   64.3931   96.1714   48.9229 H   0  0  0  0  0  0
   63.2780   97.9390   48.9420 H   0  0  0  0  0  0
   61.1950   96.8590   44.5560 H   0  0  0  0  0  0
   63.0410   95.4430   45.4570 H   0  0  0  0  0  0
   65.3613   93.4405   48.9554 H   0  0  0  0  0  0
   67.6299   89.4849   39.2784 H   0  0  0  0  0  0
  1  6  2  0  0  0
  1 33  1  0  0  0
  1  2  1  0  0  0
  2 34  1  0  0  0
  2  3  2  0  0  0
  3  4  1  0  0  0
  3 48  1  0  0  0
  4  5  2  0  0  0
  4  7  1  0  0  0
  5  6  1  0  0  0
  5 35  1  0  0  0
  6 11  1  0  0  0
  7  8  2  0  0  0
  7  9  1  0  0  0
  9 36  1  0  0  0
  9 10  1  0  0  0
 10 37  1  0  0  0
 10 38  1  0  0  0
 10 39  1  0  0  0
 11 12  1  0  0  0
 12 17  1  0  0  0
 12 13  2  0  0  0
 13 14  1  0  0  0
 13 40  1  0  0  0
 14 18  1  0  0  0
 14 15  2  0  0  0
 15 16  1  0  0  0
 15 20  1  0  0  0
 16 41  1  0  0  0
 16 17  2  0  0  0
 17 42  1  0  0  0
 18 19  2  0  0  0
 19 21  1  0  0  0
 19 20  1  0  0  0
 20 47  1  0  0  0
 21 43  1  0  0  0
 21 22  1  0  0  0
 22 23  2  0  0  0
 22 27  1  0  0  0
 23 44  1  0  0  0
 23 24  1  0  0  0
 24 28  1  0  0  0
 24 25  2  0  0  0
 25 26  1  0  0  0
 25 29  1  0  0  0
 26 27  2  0  0  0
 26 45  1  0  0  0
 27 46  1  0  0  0
 28 30  1  0  0  0
 28 32  1  0  0  0
 28 31  1  0  0  0
M  CHG  1   3   1
M  END
> <s_m_source_file>
C:\GitHub\mcce-charges\epik_inhibitors\output-new\Regorafenib\Regorafenib-input.mol2

> <i_m_source_file_index>
1

> <r_epik_Ionization_Penalty>
  2.7641

> <r_epik_Ionization_Penalty_Charging>
  2.7087

> <r_epik_Ionization_Penalty_Neutral>
  0.0553

> <r_epik_State_Penalty>
  3.4220

> <r_epik_Charging_Adjusted_Penalty>
6.13074724056914

> <i_epik_Tot_Q>
1

> <i_epik_Tot_abs_Q>
1

$$$$
276
                    3D
 Structure written by MMmdl.
 47 50  0  0  1  0            999 V2000
   67.0220   90.6190   42.4480 C   0  0  0  0  0  0
   66.8250   90.0640   41.1750 C   0  0  0  0  0  0
   67.8350   89.9260   40.2650 N   0  3  0  0  0  0
   69.0930   90.3430   40.6020 C   0  0  0  0  0  0
   69.3660   90.9030   41.8450 C   0  0  0  0  0  0
   68.3340   91.0500   42.7830 C   0  0  0  0  0  0
   70.2120   90.2100   39.6450 C   0  0  0  0  0  0
   71.3040   90.7980   39.7750 O   0  5  0  0  0  0
   69.9370   89.3780   38.6010 N   0  0  0  0  0  0
   70.9310   89.1270   37.5570 C   0  0  0  0  0  0
   68.7650   91.6190   43.9810 O   0  0  0  0  0  0
   67.9410   92.1250   44.9770 C   0  0  0  0  0  0
   67.2230   93.3370   44.8210 C   0  0  0  0  0  0
   66.4540   93.8150   45.8690 C   0  0  0  0  0  0
   66.3840   93.0840   47.1060 C   0  0  0  0  0  0
   67.0790   91.9000   47.2570 C   0  0  0  0  0  0
   67.8620   91.4110   46.1940 C   0  0  0  0  0  0
   65.6710   94.9350   46.0210 N   0  0  0  0  0  0
   65.1660   94.8930   47.2630 C   0  0  0  0  0  0
   65.5680   93.8040   47.9380 N   0  0  0  0  0  0
   64.2820   95.9030   47.8620 N   0  0  0  0  0  0
   63.2770   96.6090   47.2720 C   0  0  0  0  0  0
   62.8180   97.7120   47.9910 C   0  0  0  0  0  0
   61.7760   98.5450   47.5260 C   0  0  0  0  0  0
   61.1880   98.2100   46.2550 C   0  0  0  0  0  0
   61.6440   97.0950   45.5090 C   0  0  0  0  0  0
   62.6890   96.2950   46.0200 C   0  0  0  0  0  0
   61.3450   99.7240   48.3940 C   0  0  0  0  0  0
   59.8900   99.1210   45.5280 Cl  0  0  0  0  0  0
   60.1520   99.4120   48.8550 F   0  0  0  0  0  0
   61.2950  100.8240   47.6670 F   0  0  0  0  0  0
   62.2040   99.9190   49.4030 F   0  0  0  0  0  0
   66.2060   90.7150   43.1490 H   0  0  0  0  0  0
   65.8340   89.7320   40.9030 H   0  0  0  0  0  0
   70.3690   91.2230   42.0870 H   0  0  0  0  0  0
   70.5138   88.4327   36.8128 H   0  0  0  0  0  0
   71.8317   88.6842   38.0072 H   0  0  0  0  0  0
   71.1947   90.0755   37.0662 H   0  0  0  0  0  0
   67.2750   93.8840   43.8910 H   0  0  0  0  0  0
   67.0220   91.3520   48.1860 H   0  0  0  0  0  0
   68.4050   90.4850   46.3090 H   0  0  0  0  0  0
   65.5675   95.6504   45.1919 H   0  0  0  0  0  0
   64.3931   96.1714   48.9229 H   0  0  0  0  0  0
   63.2780   97.9390   48.9420 H   0  0  0  0  0  0
   61.1950   96.8590   44.5560 H   0  0  0  0  0  0
   63.0410   95.4430   45.4570 H   0  0  0  0  0  0
   67.6299   89.4849   39.2784 H   0  0  0  0  0  0
  1  6  2  0  0  0
  1 33  1  0  0  0
  1  2  1  0  0  0
  2 34  1  0  0  0
  2  3  2  0  0  0
  3  4  1  0  0  0
  3 47  1  0  0  0
  4  5  2  0  0  0
  4  7  1  0  0  0
  5  6  1  0  0  0
  5 35  1  0  0  0
  6 11  1  0  0  0
  7  8  1  0  0  0
  7  9  2  0  0  0
  9 10  1  0  0  0
 10 36  1  0  0  0
 10 37  1  0  0  0
 10 38  1  0  0  0
 11 12  1  0  0  0
 12 17  1  0  0  0
 12 13  2  0  0  0
 13 14  1  0  0  0
 13 39  1  0  0  0
 14 18  1  0  0  0
 14 15  2  0  0  0
 15 16  1  0  0  0
 15 20  1  0  0  0
 16 40  1  0  0  0
 16 17  2  0  0  0
 17 41  1  0  0  0
 18 19  1  0  0  0
 18 42  1  0  0  0
 19 21  1  0  0  0
 19 20  2  0  0  0
 21 43  1  0  0  0
 21 22  1  0  0  0
 22 23  2  0  0  0
 22 27  1  0  0  0
 23 44  1  0  0  0
 23 24  1  0  0  0
 24 28  1  0  0  0
 24 25  2  0  0  0
 25 26  1  0  0  0
 25 29  1  0  0  0
 26 27  2  0  0  0
 26 45  1  0  0  0
 27 46  1  0  0  0
 28 30  1  0  0  0
 28 32  1  0  0  0
 28 31  1  0  0  0
M  CHG  2   3   1   8  -1
M  END
> <s_m_source_file>
C:\GitHub\mcce-charges\epik_inhibitors\output-new\Regorafenib\Regorafenib-input.mol2

> <i_m_source_file_index>
1

> <r_epik_Ionization_Penalty>
  1.8573

> <r_epik_Ionization_Penalty_Charging>
  1.8389

> <r_epik_Ionization_Penalty_Neutral>
  0.0184

> <r_epik_State_Penalty>
  5.0677

> <r_epik_Charging_Adjusted_Penalty>
6.90663449765198

> <i_epik_Tot_Q>
0

> <i_epik_Tot_abs_Q>
2

$$$$
276
                    3D
 Structure written by MMmdl.
 49 52  0  0  1  0            999 V2000
   67.0220   90.6190   42.4480 C   0  0  0  0  0  0
   66.8250   90.0640   41.1750 C   0  0  0  0  0  0
   67.8350   89.9260   40.2650 N   0  3  0  0  0  0
   69.0930   90.3430   40.6020 C   0  0  0  0  0  0
   69.3660   90.9030   41.8450 C   0  0  0  0  0  0
   68.3340   91.0500   42.7830 C   0  0  0  0  0  0
   70.2120   90.2100   39.6450 C   0  0  0  0  0  0
   71.3040   90.7980   39.7750 O   0  0  0  0  0  0
   69.9370   89.3780   38.6010 N   0  0  0  0  0  0
   70.9310   89.1270   37.5570 C   0  0  0  0  0  0
   68.7650   91.6190   43.9810 O   0  0  0  0  0  0
   67.9410   92.1250   44.9770 C   0  0  0  0  0  0
   67.2230   93.3370   44.8210 C   0  0  0  0  0  0
   66.4540   93.8150   45.8690 C   0  0  0  0  0  0
   66.3840   93.0840   47.1060 C   0  0  0  0  0  0
   67.0790   91.9000   47.2570 C   0  0  0  0  0  0
   67.8620   91.4110   46.1940 C   0  0  0  0  0  0
   65.6710   94.9350   46.0210 N   0  0  0  0  0  0
   65.1660   94.8930   47.2630 C   0  0  0  0  0  0
   65.5680   93.8040   47.9380 N   0  3  0  0  0  0
   64.2820   95.9030   47.8620 N   0  0  0  0  0  0
   63.2770   96.6090   47.2720 C   0  0  0  0  0  0
   62.8180   97.7120   47.9910 C   0  0  0  0  0  0
   61.7760   98.5450   47.5260 C   0  0  0  0  0  0
   61.1880   98.2100   46.2550 C   0  0  0  0  0  0
   61.6440   97.0950   45.5090 C   0  0  0  0  0  0
   62.6890   96.2950   46.0200 C   0  0  0  0  0  0
   61.3450   99.7240   48.3940 C   0  0  0  0  0  0
   59.8900   99.1210   45.5280 Cl  0  0  0  0  0  0
   60.1520   99.4120   48.8550 F   0  0  0  0  0  0
   61.2950  100.8240   47.6670 F   0  0  0  0  0  0
   62.2040   99.9190   49.4030 F   0  0  0  0  0  0
   66.2060   90.7150   43.1490 H   0  0  0  0  0  0
   65.8340   89.7320   40.9030 H   0  0  0  0  0  0
   70.3690   91.2230   42.0870 H   0  0  0  0  0  0
   68.9513   88.8923   38.5502 H   0  0  0  0  0  0
   70.5138   88.4327   36.8128 H   0  0  0  0  0  0
   71.8317   88.6842   38.0072 H   0  0  0  0  0  0
   71.1947   90.0755   37.0662 H   0  0  0  0  0  0
   67.2750   93.8840   43.8910 H   0  0  0  0  0  0
   67.0220   91.3520   48.1860 H   0  0  0  0  0  0
   68.4050   90.4850   46.3090 H   0  0  0  0  0  0
   65.5675   95.6504   45.1919 H   0  0  0  0  0  0
   64.3931   96.1714   48.9229 H   0  0  0  0  0  0
   63.2780   97.9390   48.9420 H   0  0  0  0  0  0
   61.1950   96.8590   44.5560 H   0  0  0  0  0  0
   63.0410   95.4430   45.4570 H   0  0  0  0  0  0
   65.3613   93.4405   48.9554 H   0  0  0  0  0  0
   67.6299   89.4849   39.2784 H   0  0  0  0  0  0
  1  6  2  0  0  0
  1 33  1  0  0  0
  1  2  1  0  0  0
  2 34  1  0  0  0
  2  3  2  0  0  0
  3  4  1  0  0  0
  3 49  1  0  0  0
  4  5  2  0  0  0
  4  7  1  0  0  0
  5  6  1  0  0  0
  5 35  1  0  0  0
  6 11  1  0  0  0
  7  8  2  0  0  0
  7  9  1  0  0  0
  9 36  1  0  0  0
  9 10  1  0  0  0
 10 37  1  0  0  0
 10 38  1  0  0  0
 10 39  1  0  0  0
 11 12  1  0  0  0
 12 17  1  0  0  0
 12 13  2  0  0  0
 13 14  1  0  0  0
 13 40  1  0  0  0
 14 18  1  0  0  0
 14 15  2  0  0  0
 15 16  1  0  0  0
 15 20  1  0  0  0
 16 41  1  0  0  0
 16 17  2  0  0  0
 17 42  1  0  0  0
 18 19  1  0  0  0
 18 43  1  0  0  0
 19 21  1  0  0  0
 19 20  2  0  0  0
 20 48  1  0  0  0
 21 44  1  0  0  0
 21 22  1  0  0  0
 22 23  2  0  0  0
 22 27  1  0  0  0
 23 45  1  0  0  0
 23 24  1  0  0  0
 24 28  1  0  0  0
 24 25  2  0  0  0
 25 26  1  0  0  0
 25 29  1  0  0  0
 26 27  2  0  0  0
 26 46  1  0  0  0
 27 47  1  0  0  0
 28 30  1  0  0  0
 28 32  1  0  0  0
 28 31  1  0  0  0
M  CHG  2   3   1  20   1
M  END
> <s_m_source_file>
C:\GitHub\mcce-charges\epik_inhibitors\output-new\Regorafenib\Regorafenib-input.mol2

> <i_m_source_file_index>
1

> <r_epik_Ionization_Penalty>
  6.6479

> <r_epik_Ionization_Penalty_Charging>
  6.6196

> <r_epik_Ionization_Penalty_Neutral>
  0.0283

> <r_epik_State_Penalty>
  5.3152

> <r_epik_Charging_Adjusted_Penalty>
11.934824607774

> <i_epik_Tot_Q>
2

> <i_epik_Tot_abs_Q>
2

$$$$
276
                    3D
 Structure written by MMmdl.
 47 50  0  0  1  0            999 V2000
   67.0220   90.6190   42.4480 C   0  0  0  0  0  0
   66.8250   90.0640   41.1750 C   0  0  0  0  0  0
   67.8350   89.9260   40.2650 N   0  3  0  0  0  0
   69.0930   90.3430   40.6020 C   0  0  0  0  0  0
   69.3660   90.9030   41.8450 C   0  0  0  0  0  0
   68.3340   91.0500   42.7830 C   0  0  0  0  0  0
   70.2120   90.2100   39.6450 C   0  0  0  0  0  0
   71.3040   90.7980   39.7750 O   0  5  0  0  0  0
   69.9370   89.3780   38.6010 N   0  0  0  0  0  0
   70.9310   89.1270   37.5570 C   0  0  0  0  0  0
   68.7650   91.6190   43.9810 O   0  0  0  0  0  0
   67.9410   92.1250   44.9770 C   0  0  0  0  0  0
   67.2230   93.3370   44.8210 C   0  0  0  0  0  0
   66.4540   93.8150   45.8690 C   0  0  0  0  0  0
   66.3840   93.0840   47.1060 C   0  0  0  0  0  0
   67.0790   91.9000   47.2570 C   0  0  0  0  0  0
   67.8620   91.4110   46.1940 C   0  0  0  0  0  0
   65.6710   94.9350   46.0210 N   0  0  0  0  0  0
   65.1660   94.8930   47.2630 C   0  0  0  0  0  0
   65.5680   93.8040   47.9380 N   0  0  0  0  0  0
   64.2820   95.9030   47.8620 N   0  0  0  0  0  0
   63.2770   96.6090   47.2720 C   0  0  0  0  0  0
   62.8180   97.7120   47.9910 C   0  0  0  0  0  0
   61.7760   98.5450   47.5260 C   0  0  0  0  0  0
   61.1880   98.2100   46.2550 C   0  0  0  0  0  0
   61.6440   97.0950   45.5090 C   0  0  0  0  0  0
   62.6890   96.2950   46.0200 C   0  0  0  0  0  0
   61.3450   99.7240   48.3940 C   0  0  0  0  0  0
   59.8900   99.1210   45.5280 Cl  0  0  0  0  0  0
   60.1520   99.4120   48.8550 F   0  0  0  0  0  0
   61.2950  100.8240   47.6670 F   0  0  0  0  0  0
   62.2040   99.9190   49.4030 F   0  0  0  0  0  0
   66.2060   90.7150   43.1490 H   0  0  0  0  0  0
   65.8340   89.7320   40.9030 H   0  0  0  0  0  0
   70.3690   91.2230   42.0870 H   0  0  0  0  0  0
   70.5138   88.4327   36.8128 H   0  0  0  0  0  0
   71.8317   88.6842   38.0072 H   0  0  0  0  0  0
   71.1947   90.0755   37.0662 H   0  0  0  0  0  0
   67.2750   93.8840   43.8910 H   0  0  0  0  0  0
   67.0220   91.3520   48.1860 H   0  0  0  0  0  0
   68.4050   90.4850   46.3090 H   0  0  0  0  0  0
   64.3931   96.1714   48.9229 H   0  0  0  0  0  0
   63.2780   97.9390   48.9420 H   0  0  0  0  0  0
   61.1950   96.8590   44.5560 H   0  0  0  0  0  0
   63.0410   95.4430   45.4570 H   0  0  0  0  0  0
   65.3613   93.4405   48.9554 H   0  0  0  0  0  0
   67.6299   89.4849   39.2784 H   0  0  0  0  0  0
  1  6  2  0  0  0
  1 33  1  0  0  0
  1  2  1  0  0  0
  2 34  1  0  0  0
  2  3  2  0  0  0
  3  4  1  0  0  0
  3 47  1  0  0  0
  4  5  2  0  0  0
  4  7  1  0  0  0
  5  6  1  0  0  0
  5 35  1  0  0  0
  6 11  1  0  0  0
  7  8  1  0  0  0
  7  9  2  0  0  0
  9 10  1  0  0  0
 10 36  1  0  0  0
 10 37  1  0  0  0
 10 38  1  0  0  0
 11 12  1  0  0  0
 12 17  1  0  0  0
 12 13  2  0  0  0
 13 14  1  0  0  0
 13 39  1  0  0  0
 14 18  1  0  0  0
 14 15  2  0  0  0
 15 16  1  0  0  0
 15 20  1  0  0  0
 16 40  1  0  0  0
 16 17  2  0  0  0
 17 41  1  0  0  0
 18 19  2  0  0  0
 19 21  1  0  0  0
 19 20  1  0  0  0
 20 46  1  0  0  0
 21 42  1  0  0  0
 21 22  1  0  0  0
 22 23  2  0  0  0
 22 27  1  0  0  0
 23 43  1  0  0  0
 23 24  1  0  0  0
 24 28  1  0  0  0
 24 25  2  0  0  0
 25 26  1  0  0  0
 25 29  1  0  0  0
 26 27  2  0  0  0
 26 44  1  0  0  0
 27 45  1  0  0  0
 28 30  1  0  0  0
 28 32  1  0  0  0
 28 31  1  0  0  0
M  CHG  2   3   1   8  -1
M  END
> <s_m_source_file>
C:\GitHub\mcce-charges\epik_inhibitors\output-new\Regorafenib\Regorafenib-input.mol2

> <i_m_source_file_index>
1

> <r_epik_Ionization_Penalty>
  1.8660

> <r_epik_Ionization_Penalty_Charging>
  1.8389

> <r_epik_Ionization_Penalty_Neutral>
  0.0271

> <r_epik_State_Penalty>
  5.3320

> <r_epik_Charging_Adjusted_Penalty>
7.1708821881056

> <i_epik_Tot_Q>
0

> <i_epik_Tot_abs_Q>
2

$$$$
