@<TRIPOS>MOLECULE
4-[[2-[4-chloro-3-(trifluoromethyl)anilino]-3~{H}-benzimidazol-5-yl]oxy]-~{N}-methyl-pyridine-2-carboxamide
   47    50     1     0     0
SMALL
USER_CHARGES

@<TRIPOS>ATOM
      1 C1         67.0220   90.6190   42.4480 C.ar      1 276        -0.2678
      2 C2         66.8250   90.0640   41.1750 C.ar      1 276         0.4126
      3 N3         67.8350   89.9260   40.2650 N.ar      1 276        -0.6793
      4 C4         69.0930   90.3430   40.6020 C.ar      1 276         0.3728
      5 C5         69.3660   90.9030   41.8450 C.ar      1 276        -0.1981
      6 C6         68.3340   91.0500   42.7830 C.ar      1 276         0.1285
      7 C10        70.2120   90.2100   39.6450 C.2       1 276         0.5709
      8 O11        71.3040   90.7980   39.7750 O.2       1 276        -0.6060
      9 N12        69.9370   89.3780   38.6010 N.am      1 276        -0.5552
     10 C13        70.9310   89.1270   37.5570 C.3       1 276         0.0832
     11 O17        68.7650   91.6190   43.9810 O.3       1 276        -0.2442
     12 C18        67.9410   92.1250   44.9770 C.ar      1 276         0.0973
     13 C19        67.2230   93.3370   44.8210 C.ar      1 276        -0.1358
     14 C20        66.4540   93.8150   45.8690 C.ar      1 276         0.0684
     15 C21        66.3840   93.0840   47.1060 C.ar      1 276         0.0830
     16 C22        67.0790   91.9000   47.2570 C.ar      1 276        -0.0626
     17 C23        67.8620   91.4110   46.1940 C.ar      1 276        -0.1694
     18 N27        65.6710   94.9350   46.0210 N.pl3     1 276        -0.7097
     19 C28        65.1660   94.8930   47.2630 C.ar      1 276         0.7653
     20 N29        65.5680   93.8040   47.9380 N.ar      1 276        -0.6025
     21 N32        64.2820   95.9030   47.8620 N.pl3     1 276        -0.7090
     22 C33        63.2770   96.6090   47.2720 C.ar      1 276         0.1838
     23 C34        62.8180   97.7120   47.9910 C.ar      1 276        -0.1522
     24 C35        61.7760   98.5450   47.5260 C.ar      1 276        -0.1267
     25 C36        61.1880   98.2100   46.2550 C.ar      1 276         0.0253
     26 C37        61.6440   97.0950   45.5090 C.ar      1 276        -0.1012
     27 C38        62.6890   96.2950   46.0200 C.ar      1 276        -0.1223
     28 C43        61.3450   99.7240   48.3940 C.3       1 276         0.6915
     29 CL44       59.8900   99.1210   45.5280 Cl        1 276        -0.0560
     30 F45        60.1520   99.4120   48.8550 F         1 276        -0.2320
     31 F46        61.2950  100.8240   47.6670 F         1 276        -0.2320
     32 F47        62.2040   99.9190   49.4030 F         1 276        -0.2320
     33 H1         66.2060   90.7150   43.1490 H         1 276         0.1628
     34 H2         65.8340   89.7320   40.9030 H         1 276         0.0277
     35 H5         70.3690   91.2230   42.0870 H         1 276         0.1875
     36 HN12       68.9513   88.8923   38.5502 H         1 276         0.3305
     37 H131       70.5138   88.4327   36.8128 H         1 276         0.0436
     38 H132       71.8317   88.6842   38.0072 H         1 276         0.0436
     39 H133       71.1947   90.0755   37.0662 H         1 276         0.0436
     40 H19        67.2750   93.8840   43.8910 H         1 276         0.1567
     41 H22        67.0220   91.3520   48.1860 H         1 276         0.1554
     42 H23        68.4050   90.4850   46.3090 H         1 276         0.1513
     43 HN27       65.5675   95.6504   45.1919 H         1 276         0.4632
     44 HN32       64.3931   96.1714   48.9229 H         1 276         0.4462
     45 H34        63.2780   97.9390   48.9420 H         1 276         0.1535
     46 H37        61.1950   96.8590   44.5560 H         1 276         0.1598
     47 H38        63.0410   95.4430   45.4570 H         1 276         0.1856
@<TRIPOS>BOND
     1    1    6 ar
     2    1   33 1
     3    1    2 ar
     4    2   34 1
     5    2    3 ar
     6    3    4 ar
     7    4    5 ar
     8    4    7 1
     9    5    6 ar
    10    5   35 1
    11    6   11 1
    12    7    8 2
    13    7    9 am
    14    9   36 1
    15    9   10 1
    16   10   37 1
    17   10   38 1
    18   10   39 1
    19   11   12 1
    20   12   17 ar
    21   12   13 ar
    22   13   14 ar
    23   13   40 1
    24   14   18 ar
    25   14   15 ar
    26   15   16 ar
    27   15   20 ar
    28   16   41 1
    29   16   17 ar
    30   17   42 1
    31   18   19 ar
    32   18   43 1
    33   19   21 1
    34   19   20 ar
    35   21   44 1
    36   21   22 1
    37   22   23 ar
    38   22   27 ar
    39   23   45 1
    40   23   24 ar
    41   24   28 1
    42   24   25 ar
    43   25   26 ar
    44   25   29 1
    45   26   27 ar
    46   26   46 1
    47   27   47 1
    48   28   30 1
    49   28   32 1
    50   28   31 1
@<TRIPOS>SUBSTRUCTURE
     1 276         1 GROUP   0 A     ****
@<TRIPOS>MOLECULE
4-[[2-[4-chloro-3-(trifluoromethyl)anilino]-1~{H}-benzimidazol-5-yl]oxy]-~{N}-methyl-pyridine-2-carboxamide
   47    50     1     0     0
SMALL
USER_CHARGES

@<TRIPOS>ATOM
      1 C1         67.0220   90.6190   42.4480 C.ar      1 276        -0.2691
      2 C2         66.8250   90.0640   41.1750 C.ar      1 276         0.4127
      3 N3         67.8350   89.9260   40.2650 N.ar      1 276        -0.6816
      4 C4         69.0930   90.3430   40.6020 C.ar      1 276         0.3716
      5 C5         69.3660   90.9030   41.8450 C.ar      1 276        -0.1956
      6 C6         68.3340   91.0500   42.7830 C.ar      1 276         0.1290
      7 C10        70.2120   90.2100   39.6450 C.2       1 276         0.5710
      8 O11        71.3040   90.7980   39.7750 O.2       1 276        -0.6059
      9 N12        69.9370   89.3780   38.6010 N.am      1 276        -0.5561
     10 C13        70.9310   89.1270   37.5570 C.3       1 276         0.0844
     11 O17        68.7650   91.6190   43.9810 O.3       1 276        -0.2425
     12 C18        67.9410   92.1250   44.9770 C.ar      1 276         0.0740
     13 C19        67.2230   93.3370   44.8210 C.ar      1 276        -0.0827
     14 C20        66.4540   93.8150   45.8690 C.ar      1 276         0.1066
     15 C21        66.3840   93.0840   47.1060 C.ar      1 276         0.0446
     16 C22        67.0790   91.9000   47.2570 C.ar      1 276        -0.1127
     17 C23        67.8620   91.4110   46.1940 C.ar      1 276        -0.1483
     18 N27        65.6710   94.9350   46.0210 N.ar      1 276        -0.6032
     19 C28        65.1660   94.8930   47.2630 C.ar      1 276         0.7700
     20 N29        65.5680   93.8040   47.9380 N.pl3     1 276        -0.7097
     21 N32        64.2820   95.9030   47.8620 N.pl3     1 276        -0.7095
     22 C33        63.2770   96.6090   47.2720 C.ar      1 276         0.1842
     23 C34        62.8180   97.7120   47.9910 C.ar      1 276        -0.1531
     24 C35        61.7760   98.5450   47.5260 C.ar      1 276        -0.1259
     25 C36        61.1880   98.2100   46.2550 C.ar      1 276         0.0252
     26 C37        61.6440   97.0950   45.5090 C.ar      1 276        -0.1008
     27 C38        62.6890   96.2950   46.0200 C.ar      1 276        -0.1234
     28 C43        61.3450   99.7240   48.3940 C.3       1 276         0.6916
     29 CL44       59.8900   99.1210   45.5280 Cl        1 276        -0.0550
     30 F45        60.1520   99.4120   48.8550 F         1 276        -0.2320
     31 F46        61.2950  100.8240   47.6670 F         1 276        -0.2320
     32 F47        62.2040   99.9190   49.4030 F         1 276        -0.2320
     33 H1         66.2060   90.7150   43.1490 H         1 276         0.1621
     34 H2         65.8340   89.7320   40.9030 H         1 276         0.0283
     35 H5         70.3690   91.2230   42.0870 H         1 276         0.1872
     36 HN12       68.9513   88.8923   38.5502 H         1 276         0.3302
     37 H131       70.5138   88.4327   36.8128 H         1 276         0.0431
     38 H132       71.8317   88.6842   38.0072 H         1 276         0.0431
     39 H133       71.1947   90.0755   37.0662 H         1 276         0.0431
     40 H19        67.2750   93.8840   43.8910 H         1 276         0.1678
     41 H22        67.0220   91.3520   48.1860 H         1 276         0.1431
     42 H23        68.4050   90.4850   46.3090 H         1 276         0.1515
     43 HN32       64.3931   96.1714   48.9229 H         1 276         0.4458
     44 H34        63.2780   97.9390   48.9420 H         1 276         0.1531
     45 H37        61.1950   96.8590   44.5560 H         1 276         0.1602
     46 H38        63.0410   95.4430   45.4570 H         1 276         0.1855
     47 H47        65.3613   93.4405   48.9554 H         1 276         0.4621
@<TRIPOS>BOND
     1    1    6 ar
     2    1   33 1
     3    1    2 ar
     4    2   34 1
     5    2    3 ar
     6    3    4 ar
     7    4    5 ar
     8    4    7 1
     9    5    6 ar
    10    5   35 1
    11    6   11 1
    12    7    8 2
    13    7    9 am
    14    9   36 1
    15    9   10 1
    16   10   37 1
    17   10   38 1
    18   10   39 1
    19   11   12 1
    20   12   17 ar
    21   12   13 ar
    22   13   14 ar
    23   13   40 1
    24   14   18 ar
    25   14   15 ar
    26   15   16 ar
    27   15   20 ar
    28   16   41 1
    29   16   17 ar
    30   17   42 1
    31   18   19 ar
    32   19   21 1
    33   19   20 ar
    34   20   47 1
    35   21   43 1
    36   21   22 1
    37   22   23 ar
    38   22   27 ar
    39   23   44 1
    40   23   24 ar
    41   24   28 1
    42   24   25 ar
    43   25   26 ar
    44   25   29 1
    45   26   27 ar
    46   26   45 1
    47   27   46 1
    48   28   30 1
    49   28   32 1
    50   28   31 1
@<TRIPOS>SUBSTRUCTURE
     1 276         1 GROUP   0 A     ****
@<TRIPOS>MOLECULE
4-[[2-[4-chloro-3-(trifluoromethyl)anilino]-1,3-dihydrobenzimidazol-2-ylium-5-yl]oxy]-~{N}-methyl-pyridine-2-carboxamide
   48    51     1     0     0
SMALL
USER_CHARGES

@<TRIPOS>ATOM
      1 C1         67.0220   90.6190   42.4480 C.ar      1 276        -0.2729
      2 C2         66.8250   90.0640   41.1750 C.ar      1 276         0.4181
      3 N3         67.8350   89.9260   40.2650 N.ar      1 276        -0.6548
      4 C4         69.0930   90.3430   40.6020 C.ar      1 276         0.3859
      5 C5         69.3660   90.9030   41.8450 C.ar      1 276        -0.1870
      6 C6         68.3340   91.0500   42.7830 C.ar      1 276         0.0979
      7 C10        70.2120   90.2100   39.6450 C.2       1 276         0.5653
      8 O11        71.3040   90.7980   39.7750 O.2       1 276        -0.5995
      9 N12        69.9370   89.3780   38.6010 N.am      1 276        -0.5454
     10 C13        70.9310   89.1270   37.5570 C.3       1 276         0.0771
     11 O17        68.7650   91.6190   43.9810 O.3       1 276        -0.2289
     12 C18        67.9410   92.1250   44.9770 C.ar      1 276         0.1475
     13 C19        67.2230   93.3370   44.8210 C.ar      1 276        -0.1149
     14 C20        66.4540   93.8150   45.8690 C.ar      1 276         0.0925
     15 C21        66.3840   93.0840   47.1060 C.ar      1 276         0.0441
     16 C22        67.0790   91.9000   47.2570 C.ar      1 276        -0.0698
     17 C23        67.8620   91.4110   46.1940 C.ar      1 276        -0.1297
     18 N27        65.6710   94.9350   46.0210 N.pl3     1 276        -0.5760
     19 C28        65.1660   94.8930   47.2630 C.cat     1 276         0.5456
     20 N29        65.5680   93.8040   47.9380 N.pl3     1 276        -0.5598
     21 N32        64.2820   95.9030   47.8620 N.pl3     1 276        -0.6224
     22 C33        63.2770   96.6090   47.2720 C.ar      1 276         0.0724
     23 C34        62.8180   97.7120   47.9910 C.ar      1 276        -0.0727
     24 C35        61.7760   98.5450   47.5260 C.ar      1 276        -0.1404
     25 C36        61.1880   98.2100   46.2550 C.ar      1 276         0.0721
     26 C37        61.6440   97.0950   45.5090 C.ar      1 276        -0.1063
     27 C38        62.6890   96.2950   46.0200 C.ar      1 276        -0.1299
     28 C43        61.3450   99.7240   48.3940 C.3       1 276         0.6929
     29 CL44       59.8900   99.1210   45.5280 Cl        1 276         0.0064
     30 F45        60.1520   99.4120   48.8550 F         1 276        -0.2168
     31 F46        61.2950  100.8240   47.6670 F         1 276        -0.2168
     32 F47        62.2040   99.9190   49.4030 F         1 276        -0.2168
     33 H1         66.2060   90.7150   43.1490 H         1 276         0.1540
     34 H2         65.8340   89.7320   40.9030 H         1 276         0.0379
     35 H5         70.3690   91.2230   42.0870 H         1 276         0.1971
     36 HN12       68.9513   88.8923   38.5502 H         1 276         0.3339
     37 H131       70.5138   88.4327   36.8128 H         1 276         0.0519
     38 H132       71.8317   88.6842   38.0072 H         1 276         0.0519
     39 H133       71.1947   90.0755   37.0662 H         1 276         0.0519
     40 H19        67.2750   93.8840   43.8910 H         1 276         0.1882
     41 H22        67.0220   91.3520   48.1860 H         1 276         0.1742
     42 H23        68.4050   90.4850   46.3090 H         1 276         0.1844
     43 HN27       65.5675   95.6504   45.1919 H         1 276         0.5060
     44 HN32       64.3931   96.1714   48.9229 H         1 276         0.4914
     45 H34        63.2780   97.9390   48.9420 H         1 276         0.1778
     46 H37        61.1950   96.8590   44.5560 H         1 276         0.1796
     47 H38        63.0410   95.4430   45.4570 H         1 276         0.1513
     48 H48        65.3613   93.4405   48.9554 H         1 276         0.5114
@<TRIPOS>BOND
     1    1    6 ar
     2    1   33 1
     3    1    2 ar
     4    2   34 1
     5    2    3 ar
     6    3    4 ar
     7    4    5 ar
     8    4    7 1
     9    5    6 ar
    10    5   35 1
    11    6   11 1
    12    7    8 2
    13    7    9 am
    14    9   36 1
    15    9   10 1
    16   10   37 1
    17   10   38 1
    18   10   39 1
    19   11   12 1
    20   12   17 ar
    21   12   13 ar
    22   13   14 ar
    23   13   40 1
    24   14   18 ar
    25   14   15 ar
    26   15   16 ar
    27   15   20 ar
    28   16   41 1
    29   16   17 ar
    30   17   42 1
    31   18   19 ar
    32   18   43 1
    33   19   21 1
    34   19   20 ar
    35   20   48 1
    36   21   44 1
    37   21   22 1
    38   22   23 ar
    39   22   27 ar
    40   23   45 1
    41   23   24 ar
    42   24   28 1
    43   24   25 ar
    44   25   26 ar
    45   25   29 1
    46   26   27 ar
    47   26   46 1
    48   27   47 1
    49   28   30 1
    50   28   32 1
    51   28   31 1
@<TRIPOS>SUBSTRUCTURE
     1 276         1 GROUP   0 A     ****
@<TRIPOS>MOLECULE
4-[[2-[4-chloro-3-(trifluoromethyl)anilino]-3~{H}-benzimidazol-5-yl]oxy]-~{N}-methyl-1~{H}-pyridin-2-ylium-2-carboxamide
   48    51     1     0     0
SMALL
USER_CHARGES

@<TRIPOS>ATOM
      1 C1         67.0220   90.6190   42.4480 C.ar      1 276        -0.2232
      2 C2         66.8250   90.0640   41.1750 C.ar      1 276         0.1250
      3 N3         67.8350   89.9260   40.2650 N.pl3     1 276        -0.4867
      4 C4         69.0930   90.3430   40.6020 C.cat     1 276         0.0876
      5 C5         69.3660   90.9030   41.8450 C.ar      1 276        -0.1465
      6 C6         68.3340   91.0500   42.7830 C.ar      1 276         0.2620
      7 C10        70.2120   90.2100   39.6450 C.2       1 276         0.6422
      8 O11        71.3040   90.7980   39.7750 O.2       1 276        -0.5200
      9 N12        69.9370   89.3780   38.6010 N.am      1 276        -0.5467
     10 C13        70.9310   89.1270   37.5570 C.3       1 276         0.0668
     11 O17        68.7650   91.6190   43.9810 O.3       1 276        -0.1883
     12 C18        67.9410   92.1250   44.9770 C.ar      1 276         0.0152
     13 C19        67.2230   93.3370   44.8210 C.ar      1 276        -0.0953
     14 C20        66.4540   93.8150   45.8690 C.ar      1 276         0.0519
     15 C21        66.3840   93.0840   47.1060 C.ar      1 276         0.1248
     16 C22        67.0790   91.9000   47.2570 C.ar      1 276        -0.0667
     17 C23        67.8620   91.4110   46.1940 C.ar      1 276        -0.1605
     18 N27        65.6710   94.9350   46.0210 N.pl3     1 276        -0.7061
     19 C28        65.1660   94.8930   47.2630 C.ar      1 276         0.8022
     20 N29        65.5680   93.8040   47.9380 N.ar      1 276        -0.6083
     21 N32        64.2820   95.9030   47.8620 N.pl3     1 276        -0.6989
     22 C33        63.2770   96.6090   47.2720 C.ar      1 276         0.1583
     23 C34        62.8180   97.7120   47.9910 C.ar      1 276        -0.1345
     24 C35        61.7760   98.5450   47.5260 C.ar      1 276        -0.1294
     25 C36        61.1880   98.2100   46.2550 C.ar      1 276         0.0394
     26 C37        61.6440   97.0950   45.5090 C.ar      1 276        -0.1045
     27 C38        62.6890   96.2950   46.0200 C.ar      1 276        -0.1144
     28 C43        61.3450   99.7240   48.3940 C.3       1 276         0.6923
     29 CL44       59.8900   99.1210   45.5280 Cl        1 276        -0.0369
     30 F45        60.1520   99.4120   48.8550 F         1 276        -0.2269
     31 F46        61.2950  100.8240   47.6670 F         1 276        -0.2269
     32 F47        62.2040   99.9190   49.4030 F         1 276        -0.2269
     33 H1         66.2060   90.7150   43.1490 H         1 276         0.2060
     34 H2         65.8340   89.7320   40.9030 H         1 276         0.2163
     35 H5         70.3690   91.2230   42.0870 H         1 276         0.2221
     36 HN12       68.9513   88.8923   38.5502 H         1 276         0.3223
     37 H131       70.5138   88.4327   36.8128 H         1 276         0.0693
     38 H132       71.8317   88.6842   38.0072 H         1 276         0.0693
     39 H133       71.1947   90.0755   37.0662 H         1 276         0.0693
     40 H19        67.2750   93.8840   43.8910 H         1 276         0.1645
     41 H22        67.0220   91.3520   48.1860 H         1 276         0.1712
     42 H23        68.4050   90.4850   46.3090 H         1 276         0.1442
     43 HN27       65.5675   95.6504   45.1919 H         1 276         0.4725
     44 HN32       64.3931   96.1714   48.9229 H         1 276         0.4528
     45 H34        63.2780   97.9390   48.9420 H         1 276         0.1570
     46 H37        61.1950   96.8590   44.5560 H         1 276         0.1652
     47 H38        63.0410   95.4430   45.4570 H         1 276         0.1808
     48 H48        67.6299   89.4849   39.2784 H         1 276         0.4975
@<TRIPOS>BOND
     1    1    6 ar
     2    1   33 1
     3    1    2 ar
     4    2   34 1
     5    2    3 ar
     6    3    4 ar
     7    3   48 1
     8    4    5 ar
     9    4    7 1
    10    5    6 ar
    11    5   35 1
    12    6   11 1
    13    7    8 2
    14    7    9 am
    15    9   36 1
    16    9   10 1
    17   10   37 1
    18   10   38 1
    19   10   39 1
    20   11   12 1
    21   12   17 ar
    22   12   13 ar
    23   13   14 ar
    24   13   40 1
    25   14   18 ar
    26   14   15 ar
    27   15   16 ar
    28   15   20 ar
    29   16   41 1
    30   16   17 ar
    31   17   42 1
    32   18   19 ar
    33   18   43 1
    34   19   21 1
    35   19   20 ar
    36   21   44 1
    37   21   22 1
    38   22   23 ar
    39   22   27 ar
    40   23   45 1
    41   23   24 ar
    42   24   28 1
    43   24   25 ar
    44   25   26 ar
    45   25   29 1
    46   26   27 ar
    47   26   46 1
    48   27   47 1
    49   28   30 1
    50   28   32 1
    51   28   31 1
@<TRIPOS>SUBSTRUCTURE
     1 276         1 GROUP   0 A     ****
@<TRIPOS>MOLECULE
4-[[2-[4-chloro-3-(trifluoromethyl)anilino]-1~{H}-benzimidazol-5-yl]oxy]-~{N}-methyl-1~{H}-pyridin-2-ylium-2-carboxamide
   48    51     1     0     0
SMALL
USER_CHARGES

@<TRIPOS>ATOM
      1 C1         67.0220   90.6190   42.4480 C.ar      1 276        -0.2238
      2 C2         66.8250   90.0640   41.1750 C.ar      1 276         0.1246
      3 N3         67.8350   89.9260   40.2650 N.pl3     1 276        -0.4865
      4 C4         69.0930   90.3430   40.6020 C.cat     1 276         0.0857
      5 C5         69.3660   90.9030   41.8450 C.ar      1 276        -0.1453
      6 C6         68.3340   91.0500   42.7830 C.ar      1 276         0.2645
      7 C10        70.2120   90.2100   39.6450 C.2       1 276         0.6449
      8 O11        71.3040   90.7980   39.7750 O.2       1 276        -0.5193
      9 N12        69.9370   89.3780   38.6010 N.am      1 276        -0.5471
     10 C13        70.9310   89.1270   37.5570 C.3       1 276         0.0667
     11 O17        68.7650   91.6190   43.9810 O.3       1 276        -0.1910
     12 C18        67.9410   92.1250   44.9770 C.ar      1 276         0.0165
     13 C19        67.2230   93.3370   44.8210 C.ar      1 276        -0.0601
     14 C20        66.4540   93.8150   45.8690 C.ar      1 276         0.1183
     15 C21        66.3840   93.0840   47.1060 C.ar      1 276         0.0562
     16 C22        67.0790   91.9000   47.2570 C.ar      1 276        -0.0988
     17 C23        67.8620   91.4110   46.1940 C.ar      1 276        -0.1602
     18 N27        65.6710   94.9350   46.0210 N.ar      1 276        -0.6045
     19 C28        65.1660   94.8930   47.2630 C.ar      1 276         0.7965
     20 N29        65.5680   93.8040   47.9380 N.pl3     1 276        -0.7024
     21 N32        64.2820   95.9030   47.8620 N.pl3     1 276        -0.6995
     22 C33        63.2770   96.6090   47.2720 C.ar      1 276         0.1587
     23 C34        62.8180   97.7120   47.9910 C.ar      1 276        -0.1352
     24 C35        61.7760   98.5450   47.5260 C.ar      1 276        -0.1282
     25 C36        61.1880   98.2100   46.2550 C.ar      1 276         0.0391
     26 C37        61.6440   97.0950   45.5090 C.ar      1 276        -0.1038
     27 C38        62.6890   96.2950   46.0200 C.ar      1 276        -0.1169
     28 C43        61.3450   99.7240   48.3940 C.3       1 276         0.6912
     29 CL44       59.8900   99.1210   45.5280 Cl        1 276        -0.0366
     30 F45        60.1520   99.4120   48.8550 F         1 276        -0.2271
     31 F46        61.2950  100.8240   47.6670 F         1 276        -0.2271
     32 F47        62.2040   99.9190   49.4030 F         1 276        -0.2271
     33 H1         66.2060   90.7150   43.1490 H         1 276         0.2061
     34 H2         65.8340   89.7320   40.9030 H         1 276         0.2166
     35 H5         70.3690   91.2230   42.0870 H         1 276         0.2215
     36 HN12       68.9513   88.8923   38.5502 H         1 276         0.3228
     37 H131       70.5138   88.4327   36.8128 H         1 276         0.0691
     38 H132       71.8317   88.6842   38.0072 H         1 276         0.0691
     39 H133       71.1947   90.0755   37.0662 H         1 276         0.0691
     40 H19        67.2750   93.8840   43.8910 H         1 276         0.1778
     41 H22        67.0220   91.3520   48.1860 H         1 276         0.1579
     42 H23        68.4050   90.4850   46.3090 H         1 276         0.1443
     43 HN32       64.3931   96.1714   48.9229 H         1 276         0.4534
     44 H34        63.2780   97.9390   48.9420 H         1 276         0.1585
     45 H37        61.1950   96.8590   44.5560 H         1 276         0.1648
     46 H38        63.0410   95.4430   45.4570 H         1 276         0.1791
     47 H47        65.3613   93.4405   48.9554 H         1 276         0.4711
     48 H48        67.6299   89.4849   39.2784 H         1 276         0.4962
@<TRIPOS>BOND
     1    1    6 ar
     2    1   33 1
     3    1    2 ar
     4    2   34 1
     5    2    3 ar
     6    3    4 ar
     7    3   48 1
     8    4    5 ar
     9    4    7 1
    10    5    6 ar
    11    5   35 1
    12    6   11 1
    13    7    8 2
    14    7    9 am
    15    9   36 1
    16    9   10 1
    17   10   37 1
    18   10   38 1
    19   10   39 1
    20   11   12 1
    21   12   17 ar
    22   12   13 ar
    23   13   14 ar
    24   13   40 1
    25   14   18 ar
    26   14   15 ar
    27   15   16 ar
    28   15   20 ar
    29   16   41 1
    30   16   17 ar
    31   17   42 1
    32   18   19 ar
    33   19   21 1
    34   19   20 ar
    35   20   47 1
    36   21   43 1
    37   21   22 1
    38   22   23 ar
    39   22   27 ar
    40   23   44 1
    41   23   24 ar
    42   24   28 1
    43   24   25 ar
    44   25   26 ar
    45   25   29 1
    46   26   27 ar
    47   26   45 1
    48   27   46 1
    49   28   30 1
    50   28   32 1
    51   28   31 1
@<TRIPOS>SUBSTRUCTURE
     1 276         1 GROUP   0 A     ****
@<TRIPOS>MOLECULE
4-[[2-[4-chloro-3-(trifluoromethyl)anilino]-3~{H}-benzimidazol-5-yl]oxy]-~{N}-methyl-1~{H}-pyridin-2-ylium-2-carboximidate
   47    50     1     0     0
SMALL
USER_CHARGES

@<TRIPOS>ATOM
      1 C1         67.0220   90.6190   42.4480 C.ar      1 276        -0.2238
      2 C2         66.8250   90.0640   41.1750 C.ar      1 276         0.0681
      3 N3         67.8350   89.9260   40.2650 N.pl3     1 276        -0.4758
      4 C4         69.0930   90.3430   40.6020 C.cat     1 276         0.1309
      5 C5         69.3660   90.9030   41.8450 C.ar      1 276        -0.1634
      6 C6         68.3340   91.0500   42.7830 C.ar      1 276         0.1987
      7 C10        70.2120   90.2100   39.6450 C.2       1 276         0.9035
      8 O11        71.3040   90.7980   39.7750 O.3       1 276        -0.8047
      9 N12        69.9370   89.3780   38.6010 N.2       1 276        -0.8434
     10 C13        70.9310   89.1270   37.5570 C.3       1 276         0.1553
     11 O17        68.7650   91.6190   43.9810 O.3       1 276        -0.2233
     12 C18        67.9410   92.1250   44.9770 C.ar      1 276         0.0708
     13 C19        67.2230   93.3370   44.8210 C.ar      1 276        -0.1227
     14 C20        66.4540   93.8150   45.8690 C.ar      1 276         0.0621
     15 C21        66.3840   93.0840   47.1060 C.ar      1 276         0.0950
     16 C22        67.0790   91.9000   47.2570 C.ar      1 276        -0.0647
     17 C23        67.8620   91.4110   46.1940 C.ar      1 276        -0.1630
     18 N27        65.6710   94.9350   46.0210 N.pl3     1 276        -0.7086
     19 C28        65.1660   94.8930   47.2630 C.ar      1 276         0.7756
     20 N29        65.5680   93.8040   47.9380 N.ar      1 276        -0.6058
     21 N32        64.2820   95.9030   47.8620 N.pl3     1 276        -0.7079
     22 C33        63.2770   96.6090   47.2720 C.ar      1 276         0.1796
     23 C34        62.8180   97.7120   47.9910 C.ar      1 276        -0.1481
     24 C35        61.7760   98.5450   47.5260 C.ar      1 276        -0.1284
     25 C36        61.1880   98.2100   46.2550 C.ar      1 276         0.0295
     26 C37        61.6440   97.0950   45.5090 C.ar      1 276        -0.1023
     27 C38        62.6890   96.2950   46.0200 C.ar      1 276        -0.1196
     28 C43        61.3450   99.7240   48.3940 C.3       1 276         0.6917
     29 CL44       59.8900   99.1210   45.5280 Cl        1 276        -0.0512
     30 F45        60.1520   99.4120   48.8550 F         1 276        -0.2313
     31 F46        61.2950  100.8240   47.6670 F         1 276        -0.2313
     32 F47        62.2040   99.9190   49.4030 F         1 276        -0.2313
     33 H1         66.2060   90.7150   43.1490 H         1 276         0.1758
     34 H2         65.8340   89.7320   40.9030 H         1 276         0.1868
     35 H5         70.3690   91.2230   42.0870 H         1 276         0.2089
     36 H131       70.5138   88.4327   36.8128 H         1 276         0.0123
     37 H132       71.8317   88.6842   38.0072 H         1 276         0.0123
     38 H133       71.1947   90.0755   37.0662 H         1 276         0.0123
     39 H19        67.2750   93.8840   43.8910 H         1 276         0.1591
     40 H22        67.0220   91.3520   48.1860 H         1 276         0.1614
     41 H23        68.4050   90.4850   46.3090 H         1 276         0.1546
     42 HN27       65.5675   95.6504   45.1919 H         1 276         0.4657
     43 HN32       64.3931   96.1714   48.9229 H         1 276         0.4487
     44 H34        63.2780   97.9390   48.9420 H         1 276         0.1540
     45 H37        61.1950   96.8590   44.5560 H         1 276         0.1613
     46 H38        63.0410   95.4430   45.4570 H         1 276         0.1843
     47 H47        67.6299   89.4849   39.2784 H         1 276         0.4924
@<TRIPOS>BOND
     1    1    6 ar
     2    1   33 1
     3    1    2 ar
     4    2   34 1
     5    2    3 ar
     6    3    4 ar
     7    3   47 1
     8    4    5 ar
     9    4    7 1
    10    5    6 ar
    11    5   35 1
    12    6   11 1
    13    7    8 1
    14    7    9 2
    15    9   10 1
    16   10   36 1
    17   10   37 1
    18   10   38 1
    19   11   12 1
    20   12   17 ar
    21   12   13 ar
    22   13   14 ar
    23   13   39 1
    24   14   18 ar
    25   14   15 ar
    26   15   16 ar
    27   15   20 ar
    28   16   40 1
    29   16   17 ar
    30   17   41 1
    31   18   19 ar
    32   18   42 1
    33   19   21 1
    34   19   20 ar
    35   21   43 1
    36   21   22 1
    37   22   23 ar
    38   22   27 ar
    39   23   44 1
    40   23   24 ar
    41   24   28 1
    42   24   25 ar
    43   25   26 ar
    44   25   29 1
    45   26   27 ar
    46   26   45 1
    47   27   46 1
    48   28   30 1
    49   28   32 1
    50   28   31 1
@<TRIPOS>SUBSTRUCTURE
     1 276         1 GROUP   0 A     ****
@<TRIPOS>MOLECULE
4-[[2-[4-chloro-3-(trifluoromethyl)anilino]-1,3-dihydrobenzimidazol-2-ylium-5-yl]oxy]-~{N}-methyl-1~{H}-pyridin-2-ylium-2-carboxamide
   49    52     1     0     0
SMALL
USER_CHARGES

@<TRIPOS>ATOM
      1 C1         67.0220   90.6190   42.4480 C.ar      1 276        -0.2216
      2 C2         66.8250   90.0640   41.1750 C.ar      1 276         0.1310
      3 N3         67.8350   89.9260   40.2650 N.pl3     1 276        -0.4652
      4 C4         69.0930   90.3430   40.6020 C.cat     1 276         0.0937
      5 C5         69.3660   90.9030   41.8450 C.ar      1 276        -0.1271
      6 C6         68.3340   91.0500   42.7830 C.ar      1 276         0.2306
      7 C10        70.2120   90.2100   39.6450 C.2       1 276         0.6401
      8 O11        71.3040   90.7980   39.7750 O.2       1 276        -0.5071
      9 N12        69.9370   89.3780   38.6010 N.am      1 276        -0.5315
     10 C13        70.9310   89.1270   37.5570 C.3       1 276         0.0579
     11 O17        68.7650   91.6190   43.9810 O.3       1 276        -0.1965
     12 C18        67.9410   92.1250   44.9770 C.ar      1 276         0.0777
     13 C19        67.2230   93.3370   44.8210 C.ar      1 276        -0.0780
     14 C20        66.4540   93.8150   45.8690 C.ar      1 276         0.0893
     15 C21        66.3840   93.0840   47.1060 C.ar      1 276         0.0833
     16 C22        67.0790   91.9000   47.2570 C.ar      1 276        -0.0705
     17 C23        67.8620   91.4110   46.1940 C.ar      1 276        -0.1247
     18 N27        65.6710   94.9350   46.0210 N.pl3     1 276        -0.5731
     19 C28        65.1660   94.8930   47.2630 C.cat     1 276         0.5614
     20 N29        65.5680   93.8040   47.9380 N.pl3     1 276        -0.5886
     21 N32        64.2820   95.9030   47.8620 N.pl3     1 276        -0.5817
     22 C33        63.2770   96.6090   47.2720 C.ar      1 276         0.0384
     23 C34        62.8180   97.7120   47.9910 C.ar      1 276        -0.0544
     24 C35        61.7760   98.5450   47.5260 C.ar      1 276        -0.1448
     25 C36        61.1880   98.2100   46.2550 C.ar      1 276         0.0849
     26 C37        61.6440   97.0950   45.5090 C.ar      1 276        -0.1070
     27 C38        62.6890   96.2950   46.0200 C.ar      1 276        -0.1324
     28 C43        61.3450   99.7240   48.3940 C.3       1 276         0.6949
     29 CL44       59.8900   99.1210   45.5280 Cl        1 276         0.0275
     30 F45        60.1520   99.4120   48.8550 F         1 276        -0.2120
     31 F46        61.2950  100.8240   47.6670 F         1 276        -0.2120
     32 F47        62.2040   99.9190   49.4030 F         1 276        -0.2120
     33 H1         66.2060   90.7150   43.1490 H         1 276         0.1944
     34 H2         65.8340   89.7320   40.9030 H         1 276         0.2277
     35 H5         70.3690   91.2230   42.0870 H         1 276         0.2318
     36 HN12       68.9513   88.8923   38.5502 H         1 276         0.3230
     37 H131       70.5138   88.4327   36.8128 H         1 276         0.0776
     38 H132       71.8317   88.6842   38.0072 H         1 276         0.0776
     39 H133       71.1947   90.0755   37.0662 H         1 276         0.0776
     40 H19        67.2750   93.8840   43.8910 H         1 276         0.1970
     41 H22        67.0220   91.3520   48.1860 H         1 276         0.1888
     42 H23        68.4050   90.4850   46.3090 H         1 276         0.1769
     43 HN27       65.5675   95.6504   45.1919 H         1 276         0.5213
     44 HN32       64.3931   96.1714   48.9229 H         1 276         0.4946
     45 H34        63.2780   97.9390   48.9420 H         1 276         0.1843
     46 H37        61.1950   96.8590   44.5560 H         1 276         0.1840
     47 H38        63.0410   95.4430   45.4570 H         1 276         0.1456
     48 H48        65.3613   93.4405   48.9554 H         1 276         0.5170
     49 H49        67.6299   89.4849   39.2784 H         1 276         0.5103
@<TRIPOS>BOND
     1    1    6 ar
     2    1   33 1
     3    1    2 ar
     4    2   34 1
     5    2    3 ar
     6    3    4 ar
     7    3   49 1
     8    4    5 ar
     9    4    7 1
    10    5    6 ar
    11    5   35 1
    12    6   11 1
    13    7    8 2
    14    7    9 am
    15    9   36 1
    16    9   10 1
    17   10   37 1
    18   10   38 1
    19   10   39 1
    20   11   12 1
    21   12   17 ar
    22   12   13 ar
    23   13   14 ar
    24   13   40 1
    25   14   18 ar
    26   14   15 ar
    27   15   16 ar
    28   15   20 ar
    29   16   41 1
    30   16   17 ar
    31   17   42 1
    32   18   19 ar
    33   18   43 1
    34   19   21 1
    35   19   20 ar
    36   20   48 1
    37   21   44 1
    38   21   22 1
    39   22   23 ar
    40   22   27 ar
    41   23   45 1
    42   23   24 ar
    43   24   28 1
    44   24   25 ar
    45   25   26 ar
    46   25   29 1
    47   26   27 ar
    48   26   46 1
    49   27   47 1
    50   28   30 1
    51   28   32 1
    52   28   31 1
@<TRIPOS>SUBSTRUCTURE
     1 276         1 GROUP   0 A     ****
@<TRIPOS>MOLECULE
4-[[2-[4-chloro-3-(trifluoromethyl)anilino]-1~{H}-benzimidazol-5-yl]oxy]-~{N}-methyl-1~{H}-pyridin-2-ylium-2-carboximidate
   47    50     1     0     0
SMALL
USER_CHARGES

@<TRIPOS>ATOM
      1 C1         67.0220   90.6190   42.4480 C.ar      1 276        -0.2247
      2 C2         66.8250   90.0640   41.1750 C.ar      1 276         0.0683
      3 N3         67.8350   89.9260   40.2650 N.pl3     1 276        -0.4775
      4 C4         69.0930   90.3430   40.6020 C.cat     1 276         0.1309
      5 C5         69.3660   90.9030   41.8450 C.ar      1 276        -0.1617
      6 C6         68.3340   91.0500   42.7830 C.ar      1 276         0.2007
      7 C10        70.2120   90.2100   39.6450 C.2       1 276         0.8998
      8 O11        71.3040   90.7980   39.7750 O.3       1 276        -0.8071
      9 N12        69.9370   89.3780   38.6010 N.2       1 276        -0.8400
     10 C13        70.9310   89.1270   37.5570 C.3       1 276         0.1528
     11 O17        68.7650   91.6190   43.9810 O.3       1 276        -0.2229
     12 C18        67.9410   92.1250   44.9770 C.ar      1 276         0.0544
     13 C19        67.2230   93.3370   44.8210 C.ar      1 276        -0.0743
     14 C20        66.4540   93.8150   45.8690 C.ar      1 276         0.1083
     15 C21        66.3840   93.0840   47.1060 C.ar      1 276         0.0413
     16 C22        67.0790   91.9000   47.2570 C.ar      1 276        -0.1067
     17 C23        67.8620   91.4110   46.1940 C.ar      1 276        -0.1472
     18 N27        65.6710   94.9350   46.0210 N.ar      1 276        -0.6026
     19 C28        65.1660   94.8930   47.2630 C.ar      1 276         0.7687
     20 N29        65.5680   93.8040   47.9380 N.pl3     1 276        -0.6971
     21 N32        64.2820   95.9030   47.8620 N.pl3     1 276        -0.7053
     22 C33        63.2770   96.6090   47.2720 C.ar      1 276         0.1763
     23 C34        62.8180   97.7120   47.9910 C.ar      1 276        -0.1471
     24 C35        61.7760   98.5450   47.5260 C.ar      1 276        -0.1278
     25 C36        61.1880   98.2100   46.2550 C.ar      1 276         0.0295
     26 C37        61.6440   97.0950   45.5090 C.ar      1 276        -0.1016
     27 C38        62.6890   96.2950   46.0200 C.ar      1 276        -0.1211
     28 C43        61.3450   99.7240   48.3940 C.3       1 276         0.6919
     29 CL44       59.8900   99.1210   45.5280 Cl        1 276        -0.0529
     30 F45        60.1520   99.4120   48.8550 F         1 276        -0.2308
     31 F46        61.2950  100.8240   47.6670 F         1 276        -0.2308
     32 F47        62.2040   99.9190   49.4030 F         1 276        -0.2308
     33 H1         66.2060   90.7150   43.1490 H         1 276         0.1750
     34 H2         65.8340   89.7320   40.9030 H         1 276         0.1875
     35 H5         70.3690   91.2230   42.0870 H         1 276         0.2088
     36 H131       70.5138   88.4327   36.8128 H         1 276         0.0129
     37 H132       71.8317   88.6842   38.0072 H         1 276         0.0129
     38 H133       71.1947   90.0755   37.0662 H         1 276         0.0129
     39 H19        67.2750   93.8840   43.8910 H         1 276         0.1715
     40 H22        67.0220   91.3520   48.1860 H         1 276         0.1493
     41 H23        68.4050   90.4850   46.3090 H         1 276         0.1558
     42 HN32       64.3931   96.1714   48.9229 H         1 276         0.4488
     43 H34        63.2780   97.9390   48.9420 H         1 276         0.1555
     44 H37        61.1950   96.8590   44.5560 H         1 276         0.1618
     45 H38        63.0410   95.4430   45.4570 H         1 276         0.1842
     46 H46        65.3613   93.4405   48.9554 H         1 276         0.4583
     47 H47        67.6299   89.4849   39.2784 H         1 276         0.4918
@<TRIPOS>BOND
     1    1    6 ar
     2    1   33 1
     3    1    2 ar
     4    2   34 1
     5    2    3 ar
     6    3    4 ar
     7    3   47 1
     8    4    5 ar
     9    4    7 1
    10    5    6 ar
    11    5   35 1
    12    6   11 1
    13    7    8 1
    14    7    9 2
    15    9   10 1
    16   10   36 1
    17   10   37 1
    18   10   38 1
    19   11   12 1
    20   12   17 ar
    21   12   13 ar
    22   13   14 ar
    23   13   39 1
    24   14   18 ar
    25   14   15 ar
    26   15   16 ar
    27   15   20 ar
    28   16   40 1
    29   16   17 ar
    30   17   41 1
    31   18   19 ar
    32   19   21 1
    33   19   20 ar
    34   20   46 1
    35   21   42 1
    36   21   22 1
    37   22   23 ar
    38   22   27 ar
    39   23   43 1
    40   23   24 ar
    41   24   28 1
    42   24   25 ar
    43   25   26 ar
    44   25   29 1
    45   26   27 ar
    46   26   44 1
    47   27   45 1
    48   28   30 1
    49   28   32 1
    50   28   31 1
@<TRIPOS>SUBSTRUCTURE
     1 276         1 GROUP   0 A     ****
