276
  CCTOOLS-0721180813

 47 50  0  0  0  0  0  0  0  0999 V2000
   67.0220   90.6190   42.4480 C   0  0  0  0  0
   66.8250   90.0640   41.1750 C   0  0  0  0  0
   67.8350   89.9260   40.2650 N   0  0  0  0  0
   69.0930   90.3430   40.6020 C   0  0  0  0  0
   69.3660   90.9030   41.8450 C   0  0  0  0  0
   68.3340   91.0500   42.7830 C   0  0  0  0  0
   70.2120   90.2100   39.6450 C   0  0  0  0  0
   71.3040   90.7980   39.7750 O   0  0  0  0  0
   69.9370   89.3780   38.6010 N   0  0  0  0  0
   70.9310   89.1270   37.5570 C   0  0  0  0  0
   68.7650   91.6190   43.9810 O   0  0  0  0  0
   67.9410   92.1250   44.9770 C   0  0  0  0  0
   67.2230   93.3370   44.8210 C   0  0  0  0  0
   66.4540   93.8150   45.8690 C   0  0  0  0  0
   66.3840   93.0840   47.1060 C   0  0  0  0  0
   67.0790   91.9000   47.2570 C   0  0  0  0  0
   67.8620   91.4110   46.1940 C   0  0  0  0  0
   65.6710   94.9350   46.0210 N   0  0  0  0  0
   65.1660   94.8930   47.2630 C   0  0  0  0  0
   65.5680   93.8040   47.9380 N   0  0  0  0  0
   64.2820   95.9030   47.8620 N   0  0  0  0  0
   63.2770   96.6090   47.2720 C   0  0  0  0  0
   62.8180   97.7120   47.9910 C   0  0  0  0  0
   61.7760   98.5450   47.5260 C   0  0  0  0  0
   61.1880   98.2100   46.2550 C   0  0  0  0  0
   61.6440   97.0950   45.5090 C   0  0  0  0  0
   62.6890   96.2950   46.0200 C   0  0  0  0  0
   61.3450   99.7240   48.3940 C   0  0  0  0  0
   59.8900   99.1210   45.5280 CL  0  0  0  0  0
   60.1520   99.4120   48.8550 F   0  0  0  0  0
   61.2950  100.8240   47.6670 F   0  0  0  0  0
   62.2040   99.9190   49.4030 F   0  0  0  0  0
   66.2060   90.7150   43.1490 H   0  0  0  0  0
   65.8340   89.7320   40.9030 H   0  0  0  0  0
   70.3690   91.2230   42.0870 H   0  0  0  0  0
   69.0430   88.9330   38.5480 H   0  0  0  0  0
   70.4290   89.0640   36.5800 H   0  0  0  0  0
   71.6620   89.9490   37.5420 H   0  0  0  0  0
   71.4490   88.1790   37.7650 H   0  0  0  0  0
   67.2750   93.8840   43.8910 H   0  0  0  0  0
   67.0220   91.3520   48.1860 H   0  0  0  0  0
   68.4050   90.4850   46.3090 H   0  0  0  0  0
   65.5090   95.6450   45.3360 H   0  0  0  0  0
   64.4390   96.0980   48.8300 H   0  0  0  0  0
   63.2780   97.9390   48.9420 H   0  0  0  0  0
   61.1950   96.8590   44.5560 H   0  0  0  0  0
   63.0410   95.4430   45.4570 H   0  0  0  0  0
  1  6  1  0  0  0
  1 33  1  0  0  0
  2  1  2  0  0  0
  2 34  1  0  0  0
  3  4  2  0  0  0
  3  2  1  0  0  0
  4  5  1  0  0  0
  5  6  2  0  0  0
  5 35  1  0  0  0
  6 11  1  0  0  0
  7  8  2  0  0  0
  7  4  1  0  0  0
  9  7  1  0  0  0
  9 36  1  0  0  0
 10  9  1  0  0  0
 10 37  1  0  0  0
 10 38  1  0  0  0
 10 39  1  0  0  0
 11 12  1  0  0  0
 12 17  1  0  0  0
 13 12  2  0  0  0
 13 14  1  0  0  0
 13 40  1  0  0  0
 14 18  1  0  0  0
 14 15  2  0  0  0
 15 16  1  0  0  0
 15 20  1  0  0  0
 16 41  1  0  0  0
 17 16  2  0  0  0
 17 42  1  0  0  0
 18 19  1  0  0  0
 18 43  1  0  0  0
 19 21  1  0  0  0
 19 20  2  0  0  0
 21 44  1  0  0  0
 22 21  1  0  0  0
 22 23  2  0  0  0
 23 45  1  0  0  0
 24 23  1  0  0  0
 24 28  1  0  0  0
 25 24  2  0  0  0
 26 27  2  0  0  0
 26 25  1  0  0  0
 26 46  1  0  0  0
 27 22  1  0  0  0
 27 47  1  0  0  0
 28 30  1  0  0  0
 28 32  1  0  0  0
 29 25  1  0  0  0
 31 28  1  0  0  0
M  END
$$$$
