B49
  CCTOOLS-0502160700

 56 58  0  0  0  0  0  0  0  0999 V2000
  -12.5570   70.4800  -38.3840 C   0  0  0  0  0
  -17.2200   78.9120  -37.0410 C   0  0  0  0  0
  -15.9490   78.6880  -37.6290 C   0  0  0  0  0
  -17.4610   76.4830  -36.5450 C   0  0  0  0  0
  -15.7520   71.3360  -36.5950 C   0  0  0  0  0
  -17.9580   77.8080  -36.5030 C   0  0  0  0  0
  -16.2070   76.2720  -37.1310 C   0  0  0  0  0
  -15.3940   75.0750  -37.3600 C   0  0  0  0  0
  -14.1310   75.5470  -38.0500 C   0  0  0  0  0
  -14.9040   68.8820  -36.6820 C   0  0  0  0  0
  -17.0050   71.1090  -35.8030 C   0  0  0  0  0
  -15.8450   73.8610  -36.9720 C   0  0  0  0  0
  -13.8060   70.9660  -37.7090 C   0  0  0  0  0
  -15.4740   77.3620  -37.6560 C   0  0  0  0  0
  -15.2880   72.5530  -37.0820 C   0  0  0  0  0
  -14.8080   70.3190  -36.9890 C   0  0  0  0  0
  -14.1260   72.3020  -37.7440 N   0  0  0  0  0
  -14.2720   76.9180  -38.1800 N   0  0  0  0  0
  -15.2650   68.5790  -35.3700 N   0  0  0  0  0
  -13.1940   74.8890  -38.4210 O   0  0  0  0  0
  -14.6630   68.0270  -37.5350 O   0  0  0  0  0
  -19.1470   78.0170  -35.9440 F   0  0  0  0  0
  -12.7840   70.2100  -39.4260 H   0  0  0  0  0
  -11.7980   71.2760  -38.3680 H   0  0  0  0  0
  -12.1730   69.5970  -37.8520 H   0  0  0  0  0
  -17.6300   79.9100  -36.9990 H   0  0  0  0  0
  -15.3690   79.5010  -38.0390 H   0  0  0  0  0
  -18.0310   75.6610  -36.1380 H   0  0  0  0  0
  -17.8400   70.9030  -36.4880 H   0  0  0  0  0
  -16.8630   70.2500  -35.1300 H   0  0  0  0  0
  -17.2310   72.0070  -35.2090 H   0  0  0  0  0
  -16.8100   73.8870  -36.4870 H   0  0  0  0  0
  -13.5750   73.0010  -38.1990 H   0  0  0  0  0
  -13.5890   77.5150  -38.6010 H   0  0  0  0  0
  -15.3370   67.6100  -35.1350 H   0  0  0  0  0
  -15.5500   69.5440  -34.2990 C   0  0  0  0  0
  -15.9380   69.0450  -32.8950 C   0  0  0  0  0
  -16.2230   70.0100  -31.8230 N   0  0  0  0  0
  -15.1350   70.4930  -30.9610 C   0  0  0  0  0
  -17.5960   70.4930  -31.6150 C   0  0  0  0  0
  -17.8940   71.5040  -30.4930 C   0  0  0  0  0
  -15.4340   71.5040  -29.8380 C   0  0  0  0  0
  -14.6320   70.1360  -34.1690 H   0  0  0  0  0
  -16.3970   70.1500  -34.6520 H   0  0  0  0  0
  -16.8560   68.4540  -33.0250 H   0  0  0  0  0
  -15.0910   68.4390  -32.5420 H   0  0  0  0  0
  -14.7190   69.6030  -30.4670 H   0  0  0  0  0
  -14.4110   70.9840  -31.6290 H   0  0  0  0  0
  -17.8930   70.9830  -32.5540 H   0  0  0  0  0
  -18.2020   69.6030  -31.3930 H   0  0  0  0  0
  -18.9670   71.7460  -30.4920 H   0  0  0  0  0
  -17.6160   71.0670  -29.5230 H   0  0  0  0  0
  -17.3120   72.4220  -30.6630 H   0  0  0  0  0
  -14.5030   71.7460  -29.3040 H   0  0  0  0  0
  -15.8560   72.4220  -30.2740 H   0  0  0  0  0
  -16.1570   71.0660  -29.1340 H   0  0  0  0  0
  1 13  1  0  0  0
  1 23  1  0  0  0
  1 24  1  0  0  0
  1 25  1  0  0  0
  2  3  2  0  0  0
  2  6  1  0  0  0
  2 26  1  0  0  0
  3 14  1  0  0  0
  3 27  1  0  0  0
  4  6  2  0  0  0
  4  7  1  0  0  0
  4 28  1  0  0  0
  5 11  1  0  0  0
  5 15  2  0  0  0
  5 16  1  0  0  0
  6 22  1  0  0  0
  7  8  1  0  0  0
  7 14  2  0  0  0
  8  9  1  0  0  0
  8 12  2  0  0  0
  9 18  1  0  0  0
  9 20  2  0  0  0
 10 16  1  0  0  0
 10 19  1  0  0  0
 10 21  2  0  0  0
 11 29  1  0  0  0
 11 30  1  0  0  0
 11 31  1  0  0  0
 12 15  1  0  0  0
 12 32  1  0  0  0
 13 16  2  0  0  0
 13 17  1  0  0  0
 14 18  1  0  0  0
 15 17  1  0  0  0
 17 33  1  0  0  0
 18 34  1  0  0  0
 19 35  1  0  0  0
 19 36  1  0  0  0
 36 37  1  0  0  0
 36 43  1  0  0  0
 36 44  1  0  0  0
 37 38  1  0  0  0
 37 45  1  0  0  0
 37 46  1  0  0  0
 38 39  1  0  0  0
 38 40  1  0  0  0
 39 42  1  0  0  0
 39 47  1  0  0  0
 39 48  1  0  0  0
 40 41  1  0  0  0
 40 49  1  0  0  0
 40 50  1  0  0  0
 41 51  1  0  0  0
 41 52  1  0  0  0
 41 53  1  0  0  0
 42 54  1  0  0  0
 42 55  1  0  0  0
 42 56  1  0  0  0
M  END
$$$$
