DB8
  CCTOOLS-0424161102

 65 68  0  0  0  0  0  0  0  0999 V2000
  -46.2890  -11.8980   31.9630 C   0  0  0  0  0
  -40.7340   -3.3480   34.4650 O   0  0  0  0  0
  -45.9370  -16.7140   33.9290 C   0  0  0  0  0
  -42.0470   -5.6070   36.9580 N   0  0  0  0  0
  -41.6410   -2.5430   31.7040 CL  0  0  0  0  0
  -43.8530   -7.4090   31.5070 CL  0  0  0  0  0
  -42.6040   -6.4970   36.8710 C   0  0  0  0  0
  -44.1270   -8.3740   37.7730 C   0  0  0  0  0
  -42.6710   -5.0430   31.8540 C   0  0  0  0  0
  -41.7470   -5.6360   34.3880 C   0  0  0  0  0
  -45.8070  -11.4630   36.5110 C   0  0  0  0  0
  -44.4960  -10.5590   34.1910 C   0  0  0  0  0
  -46.3970  -15.2540   33.9000 C   0  0  0  0  0
  -46.3040  -14.6450   35.2980 C   0  0  0  0  0
  -49.7410  -20.4620   32.0550 C   0  0  0  0  0
  -46.9010  -18.9560   34.0040 C   0  0  0  0  0
  -47.5400  -17.3980   32.3130 C   0  0  0  0  0
  -48.0990  -19.8290   33.6830 C   0  0  0  0  0
  -48.7550  -18.2620   32.0640 C   0  0  0  0  0
  -44.8800   -9.5430   37.6960 N   0  0  0  0  0
  -42.7700   -7.9670   34.2760 N   0  0  0  0  0
  -45.3390  -12.3390   32.8620 O   0  0  0  0  0
  -46.8510  -13.3800   35.2230 O   0  0  0  0  0
  -41.4640   -4.3120   33.7870 C   0  0  0  0  0
  -41.9390   -4.0440   32.5110 C   0  0  0  0  0
  -42.9410   -6.2980   32.4360 C   0  0  0  0  0
  -43.4290   -7.8160   36.7070 C   0  0  0  0  0
  -42.4850   -6.6150   33.7650 C   0  0  0  0  0
  -45.2610  -11.7280   34.1420 C   0  0  0  0  0
  -45.9310  -12.2080   35.3090 C   0  0  0  0  0
  -43.5260   -8.4920   35.4760 C   0  0  0  0  0
  -44.9960  -10.2460   36.5210 C   0  0  0  0  0
  -44.3210   -9.7500   35.3900 C   0  0  0  0  0
  -47.1180  -17.5460   33.6690 N   0  0  0  0  0
  -48.5470  -19.6570   32.3240 N   0  0  0  0  0
  -39.4020   -2.8960   34.0930 C   0  0  0  0  0
  -46.2090  -12.4760   31.0310 H   0  0  0  0  0
  -47.2920  -12.0340   32.3930 H   0  0  0  0  0
  -46.1240  -10.8320   31.7480 H   0  0  0  0  0
  -45.5080  -16.9580   34.9120 H   0  0  0  0  0
  -45.1720  -16.8870   33.1580 H   0  0  0  0  0
  -44.0820   -7.8660   38.7250 H   0  0  0  0  0
  -43.0440   -4.8430   30.8600 H   0  0  0  0  0
  -41.3510   -5.8440   35.3710 H   0  0  0  0  0
  -46.3070  -11.7920   37.4100 H   0  0  0  0  0
  -44.0050  -10.2360   33.2850 H   0  0  0  0  0
  -45.7540  -14.6850   33.2130 H   0  0  0  0  0
  -47.4400  -15.2090   33.5540 H   0  0  0  0  0
  -46.8610  -15.2600   36.0200 H   0  0  0  0  0
  -45.2540  -14.5890   35.6210 H   0  0  0  0  0
  -50.0590  -20.3110   31.0130 H   0  0  0  0  0
  -49.5100  -21.5250   32.2170 H   0  0  0  0  0
  -50.5510  -20.1550   32.7330 H   0  0  0  0  0
  -46.0410  -19.3210   33.4240 H   0  0  0  0  0
  -46.6990  -19.0290   35.0830 H   0  0  0  0  0
  -46.7260  -17.7080   31.6400 H   0  0  0  0  0
  -47.7940  -16.3450   32.1210 H   0  0  0  0  0
  -47.8150  -20.8820   33.8280 H   0  0  0  0  0
  -48.9220  -19.5580   34.3610 H   0  0  0  0  0
  -49.5610  -17.9110   32.7250 H   0  0  0  0  0
  -49.0370  -18.1530   31.0060 H   0  0  0  0  0
  -42.3810   -8.6920   33.7080 H   0  0  0  0  0
  -39.0630   -2.1270   34.8030 H   0  0  0  0  0
  -38.7060   -3.7480   34.1160 H   0  0  0  0  0
  -39.4290   -2.4710   33.0790 H   0  0  0  0  0
  1 22  1  0  0  0
  1 37  1  0  0  0
  1 38  1  0  0  0
  1 39  1  0  0  0
  3 40  1  0  0  0
  3 41  1  0  0  0
  5 25  1  0  0  0
  6 26  1  0  0  0
  7  4  3  0  0  0
  8 42  1  0  0  0
  9 26  2  0  0  0
  9 25  1  0  0  0
  9 43  1  0  0  0
 10 44  1  0  0  0
 11 32  1  0  0  0
 11 45  1  0  0  0
 12 33  1  0  0  0
 12 46  1  0  0  0
 13  3  1  0  0  0
 13 14  1  0  0  0
 13 47  1  0  0  0
 13 48  1  0  0  0
 14 49  1  0  0  0
 14 50  1  0  0  0
 15 35  1  0  0  0
 15 51  1  0  0  0
 15 52  1  0  0  0
 15 53  1  0  0  0
 16 54  1  0  0  0
 16 55  1  0  0  0
 17 34  1  0  0  0
 17 56  1  0  0  0
 17 57  1  0  0  0
 18 16  1  0  0  0
 18 58  1  0  0  0
 18 59  1  0  0  0
 19 17  1  0  0  0
 19 35  1  0  0  0
 19 60  1  0  0  0
 19 61  1  0  0  0
 20  8  1  0  0  0
 21 31  1  0  0  0
 21 62  1  0  0  0
 22 29  1  0  0  0
 23 14  1  0  0  0
 23 30  1  0  0  0
 24  2  1  0  0  0
 24 10  1  0  0  0
 25 24  2  0  0  0
 26 28  1  0  0  0
 27  7  1  0  0  0
 27  8  2  0  0  0
 28 10  2  0  0  0
 28 21  1  0  0  0
 29 12  2  0  0  0
 29 30  1  0  0  0
 30 11  2  0  0  0
 31 27  1  0  0  0
 32 20  2  0  0  0
 33 31  2  0  0  0
 33 32  1  0  0  0
 34  3  1  0  0  0
 34 16  1  0  0  0
 35 18  1  0  0  0
 36  2  1  0  0  0
 36 63  1  0  0  0
 36 64  1  0  0  0
 36 65  1  0  0  0
M  END
$$$$
